
#======================================================================
# CRYSTAL DATA
#----------------------------------------------------------------------
data_VESTA_phase_1

_chemical_name_common                  'CAU11SCOH_PCE_OPT                     '
_cell_length_a                         61.368301
_cell_length_b                         52.168800
_cell_length_c                         50.626801
_cell_angle_alpha                      90.000000
_cell_angle_beta                       90.000000
_cell_angle_gamma                      90.000000
_cell_volume                           162082.241771
_space_group_name_H-M_alt              'P 1'
_space_group_IT_number                 1

loop_
_space_group_symop_operation_xyz
   'x, y, z'

loop_
   _atom_site_label
   _atom_site_occupancy
   _atom_site_fract_x
   _atom_site_fract_y
   _atom_site_fract_z
   _atom_site_adp_type
   _atom_site_U_iso_or_equiv
   _atom_site_type_symbol
   Al1        1.0     0.079086     0.064332     0.138407    Uiso  ? Al
   Al1        1.0     0.079086     0.064332     0.281264    Uiso  ? Al
   Al1        1.0     0.079086     0.064332     0.424121    Uiso  ? Al
   Al1        1.0     0.079086     0.064332     0.566978    Uiso  ? Al
   Al1        1.0     0.079086     0.064332     0.709836    Uiso  ? Al
   Al1        1.0     0.079086     0.064332     0.852693    Uiso  ? Al
   Al1        1.0     0.079086     0.064332     0.995550    Uiso  ? Al
   Al1        1.0     0.079086     0.314332     0.138407    Uiso  ? Al
   Al1        1.0     0.079086     0.314332     0.281264    Uiso  ? Al
   Al1        1.0     0.079086     0.314332     0.424121    Uiso  ? Al
   Al1        1.0     0.079086     0.314332     0.566978    Uiso  ? Al
   Al1        1.0     0.079086     0.314332     0.709836    Uiso  ? Al
   Al1        1.0     0.079086     0.314332     0.852693    Uiso  ? Al
   Al1        1.0     0.079086     0.314332     0.995550    Uiso  ? Al
   Al1        1.0     0.079086     0.564332     0.138407    Uiso  ? Al
   Al1        1.0     0.079086     0.564332     0.281264    Uiso  ? Al
   Al1        1.0     0.079086     0.564332     0.424121    Uiso  ? Al
   Al1        1.0     0.079086     0.564332     0.566978    Uiso  ? Al
   Al1        1.0     0.079086     0.564332     0.709836    Uiso  ? Al
   Al1        1.0     0.079086     0.564332     0.852693    Uiso  ? Al
   Al1        1.0     0.079086     0.564332     0.995550    Uiso  ? Al
   Al1        1.0     0.079086     0.814332     0.138407    Uiso  ? Al
   Al1        1.0     0.079086     0.814332     0.281264    Uiso  ? Al
   Al1        1.0     0.079086     0.814332     0.424121    Uiso  ? Al
   Al1        1.0     0.079086     0.814332     0.566978    Uiso  ? Al
   Al1        1.0     0.079086     0.814332     0.709836    Uiso  ? Al
   Al1        1.0     0.079086     0.814332     0.852693    Uiso  ? Al
   Al1        1.0     0.079086     0.814332     0.995550    Uiso  ? Al
   Al1        1.0     0.412420     0.064332     0.138407    Uiso  ? Al
   Al1        1.0     0.412420     0.064332     0.281264    Uiso  ? Al
   Al1        1.0     0.412420     0.064332     0.424121    Uiso  ? Al
   Al1        1.0     0.412420     0.064332     0.566978    Uiso  ? Al
   Al1        1.0     0.412420     0.064332     0.709836    Uiso  ? Al
   Al1        1.0     0.412420     0.064332     0.852693    Uiso  ? Al
   Al1        1.0     0.412420     0.064332     0.995550    Uiso  ? Al
   Al1        1.0     0.412420     0.314332     0.138407    Uiso  ? Al
   Al1        1.0     0.412420     0.314332     0.281264    Uiso  ? Al
   Al1        1.0     0.412420     0.314332     0.424121    Uiso  ? Al
   Al1        1.0     0.412420     0.314332     0.566978    Uiso  ? Al
   Al1        1.0     0.412420     0.314332     0.709836    Uiso  ? Al
   Al1        1.0     0.412420     0.314332     0.852693    Uiso  ? Al
   Al1        1.0     0.412420     0.314332     0.995550    Uiso  ? Al
   Al1        1.0     0.412420     0.564332     0.138407    Uiso  ? Al
   Al1        1.0     0.412420     0.564332     0.281264    Uiso  ? Al
   Al1        1.0     0.412420     0.564332     0.424121    Uiso  ? Al
   Al1        1.0     0.412420     0.564332     0.566978    Uiso  ? Al
   Al1        1.0     0.412420     0.564332     0.709836    Uiso  ? Al
   Al1        1.0     0.412420     0.564332     0.852693    Uiso  ? Al
   Al1        1.0     0.412420     0.564332     0.995550    Uiso  ? Al
   Al1        1.0     0.412420     0.814332     0.138407    Uiso  ? Al
   Al1        1.0     0.412420     0.814332     0.281264    Uiso  ? Al
   Al1        1.0     0.412420     0.814332     0.424121    Uiso  ? Al
   Al1        1.0     0.412420     0.814332     0.566978    Uiso  ? Al
   Al1        1.0     0.412420     0.814332     0.709836    Uiso  ? Al
   Al1        1.0     0.412420     0.814332     0.852693    Uiso  ? Al
   Al1        1.0     0.412420     0.814332     0.995550    Uiso  ? Al
   Al1        1.0     0.745753     0.064332     0.138407    Uiso  ? Al
   Al1        1.0     0.745753     0.064332     0.281264    Uiso  ? Al
   Al1        1.0     0.745753     0.064332     0.424121    Uiso  ? Al
   Al1        1.0     0.745753     0.064332     0.566978    Uiso  ? Al
   Al1        1.0     0.745753     0.064332     0.709836    Uiso  ? Al
   Al1        1.0     0.745753     0.064332     0.852693    Uiso  ? Al
   Al1        1.0     0.745753     0.064332     0.995550    Uiso  ? Al
   Al1        1.0     0.745753     0.314332     0.138407    Uiso  ? Al
   Al1        1.0     0.745753     0.314332     0.281264    Uiso  ? Al
   Al1        1.0     0.745753     0.314332     0.424121    Uiso  ? Al
   Al1        1.0     0.745753     0.314332     0.566978    Uiso  ? Al
   Al1        1.0     0.745753     0.314332     0.709836    Uiso  ? Al
   Al1        1.0     0.745753     0.314332     0.852693    Uiso  ? Al
   Al1        1.0     0.745753     0.314332     0.995550    Uiso  ? Al
   Al1        1.0     0.745753     0.564332     0.138407    Uiso  ? Al
   Al1        1.0     0.745753     0.564332     0.281264    Uiso  ? Al
   Al1        1.0     0.745753     0.564332     0.424121    Uiso  ? Al
   Al1        1.0     0.745753     0.564332     0.566978    Uiso  ? Al
   Al1        1.0     0.745753     0.564332     0.709836    Uiso  ? Al
   Al1        1.0     0.745753     0.564332     0.852693    Uiso  ? Al
   Al1        1.0     0.745753     0.564332     0.995550    Uiso  ? Al
   Al1        1.0     0.745753     0.814332     0.138407    Uiso  ? Al
   Al1        1.0     0.745753     0.814332     0.281264    Uiso  ? Al
   Al1        1.0     0.745753     0.814332     0.424121    Uiso  ? Al
   Al1        1.0     0.745753     0.814332     0.566978    Uiso  ? Al
   Al1        1.0     0.745753     0.814332     0.709836    Uiso  ? Al
   Al1        1.0     0.745753     0.814332     0.852693    Uiso  ? Al
   Al1        1.0     0.745753     0.814332     0.995550    Uiso  ? Al
   Al2        1.0     0.245756     0.186454     0.073835    Uiso  ? Al
   Al2        1.0     0.245756     0.186454     0.216692    Uiso  ? Al
   Al2        1.0     0.245756     0.186454     0.359549    Uiso  ? Al
   Al2        1.0     0.245756     0.186454     0.502406    Uiso  ? Al
   Al2        1.0     0.245756     0.186454     0.645263    Uiso  ? Al
   Al2        1.0     0.245756     0.186454     0.788120    Uiso  ? Al
   Al2        1.0     0.245756     0.186454     0.930977    Uiso  ? Al
   Al2        1.0     0.245756     0.436454     0.073835    Uiso  ? Al
   Al2        1.0     0.245756     0.436454     0.216692    Uiso  ? Al
   Al2        1.0     0.245756     0.436454     0.359549    Uiso  ? Al
   Al2        1.0     0.245756     0.436454     0.502406    Uiso  ? Al
   Al2        1.0     0.245756     0.436454     0.645263    Uiso  ? Al
   Al2        1.0     0.245756     0.436454     0.788120    Uiso  ? Al
   Al2        1.0     0.245756     0.436454     0.930977    Uiso  ? Al
   Al2        1.0     0.245756     0.686454     0.073835    Uiso  ? Al
   Al2        1.0     0.245756     0.686454     0.216692    Uiso  ? Al
   Al2        1.0     0.245756     0.686454     0.359549    Uiso  ? Al
   Al2        1.0     0.245756     0.686454     0.502406    Uiso  ? Al
   Al2        1.0     0.245756     0.686454     0.645263    Uiso  ? Al
   Al2        1.0     0.245756     0.686454     0.788120    Uiso  ? Al
   Al2        1.0     0.245756     0.686454     0.930977    Uiso  ? Al
   Al2        1.0     0.245756     0.936454     0.073835    Uiso  ? Al
   Al2        1.0     0.245756     0.936454     0.216692    Uiso  ? Al
   Al2        1.0     0.245756     0.936454     0.359549    Uiso  ? Al
   Al2        1.0     0.245756     0.936454     0.502406    Uiso  ? Al
   Al2        1.0     0.245756     0.936454     0.645263    Uiso  ? Al
   Al2        1.0     0.245756     0.936454     0.788120    Uiso  ? Al
   Al2        1.0     0.245756     0.936454     0.930977    Uiso  ? Al
   Al2        1.0     0.579089     0.186454     0.073835    Uiso  ? Al
   Al2        1.0     0.579089     0.186454     0.216692    Uiso  ? Al
   Al2        1.0     0.579089     0.186454     0.359549    Uiso  ? Al
   Al2        1.0     0.579089     0.186454     0.502406    Uiso  ? Al
   Al2        1.0     0.579089     0.186454     0.645263    Uiso  ? Al
   Al2        1.0     0.579089     0.186454     0.788120    Uiso  ? Al
   Al2        1.0     0.579089     0.186454     0.930977    Uiso  ? Al
   Al2        1.0     0.579089     0.436454     0.073835    Uiso  ? Al
   Al2        1.0     0.579089     0.436454     0.216692    Uiso  ? Al
   Al2        1.0     0.579089     0.436454     0.359549    Uiso  ? Al
   Al2        1.0     0.579089     0.436454     0.502406    Uiso  ? Al
   Al2        1.0     0.579089     0.436454     0.645263    Uiso  ? Al
   Al2        1.0     0.579089     0.436454     0.788120    Uiso  ? Al
   Al2        1.0     0.579089     0.436454     0.930977    Uiso  ? Al
   Al2        1.0     0.579089     0.686454     0.073835    Uiso  ? Al
   Al2        1.0     0.579089     0.686454     0.216692    Uiso  ? Al
   Al2        1.0     0.579089     0.686454     0.359549    Uiso  ? Al
   Al2        1.0     0.579089     0.686454     0.502406    Uiso  ? Al
   Al2        1.0     0.579089     0.686454     0.645263    Uiso  ? Al
   Al2        1.0     0.579089     0.686454     0.788120    Uiso  ? Al
   Al2        1.0     0.579089     0.686454     0.930977    Uiso  ? Al
   Al2        1.0     0.579089     0.936454     0.073835    Uiso  ? Al
   Al2        1.0     0.579089     0.936454     0.216692    Uiso  ? Al
   Al2        1.0     0.579089     0.936454     0.359549    Uiso  ? Al
   Al2        1.0     0.579089     0.936454     0.502406    Uiso  ? Al
   Al2        1.0     0.579089     0.936454     0.645263    Uiso  ? Al
   Al2        1.0     0.579089     0.936454     0.788120    Uiso  ? Al
   Al2        1.0     0.579089     0.936454     0.930977    Uiso  ? Al
   Al2        1.0     0.912423     0.186454     0.073835    Uiso  ? Al
   Al2        1.0     0.912423     0.186454     0.216692    Uiso  ? Al
   Al2        1.0     0.912423     0.186454     0.359549    Uiso  ? Al
   Al2        1.0     0.912423     0.186454     0.502406    Uiso  ? Al
   Al2        1.0     0.912423     0.186454     0.645263    Uiso  ? Al
   Al2        1.0     0.912423     0.186454     0.788120    Uiso  ? Al
   Al2        1.0     0.912423     0.186454     0.930977    Uiso  ? Al
   Al2        1.0     0.912423     0.436454     0.073835    Uiso  ? Al
   Al2        1.0     0.912423     0.436454     0.216692    Uiso  ? Al
   Al2        1.0     0.912423     0.436454     0.359549    Uiso  ? Al
   Al2        1.0     0.912423     0.436454     0.502406    Uiso  ? Al
   Al2        1.0     0.912423     0.436454     0.645263    Uiso  ? Al
   Al2        1.0     0.912423     0.436454     0.788120    Uiso  ? Al
   Al2        1.0     0.912423     0.436454     0.930977    Uiso  ? Al
   Al2        1.0     0.912423     0.686454     0.073835    Uiso  ? Al
   Al2        1.0     0.912423     0.686454     0.216692    Uiso  ? Al
   Al2        1.0     0.912423     0.686454     0.359549    Uiso  ? Al
   Al2        1.0     0.912423     0.686454     0.502406    Uiso  ? Al
   Al2        1.0     0.912423     0.686454     0.645263    Uiso  ? Al
   Al2        1.0     0.912423     0.686454     0.788120    Uiso  ? Al
   Al2        1.0     0.912423     0.686454     0.930977    Uiso  ? Al
   Al2        1.0     0.912423     0.936454     0.073835    Uiso  ? Al
   Al2        1.0     0.912423     0.936454     0.216692    Uiso  ? Al
   Al2        1.0     0.912423     0.936454     0.359549    Uiso  ? Al
   Al2        1.0     0.912423     0.936454     0.502406    Uiso  ? Al
   Al2        1.0     0.912423     0.936454     0.645263    Uiso  ? Al
   Al2        1.0     0.912423     0.936454     0.788120    Uiso  ? Al
   Al2        1.0     0.912423     0.936454     0.930977    Uiso  ? Al
   Al3        1.0     0.085191     0.064420     0.066920    Uiso  ? Al
   Al3        1.0     0.085191     0.064420     0.209777    Uiso  ? Al
   Al3        1.0     0.085191     0.064420     0.352634    Uiso  ? Al
   Al3        1.0     0.085191     0.064420     0.495491    Uiso  ? Al
   Al3        1.0     0.085191     0.064420     0.638349    Uiso  ? Al
   Al3        1.0     0.085191     0.064420     0.781206    Uiso  ? Al
   Al3        1.0     0.085191     0.064420     0.924063    Uiso  ? Al
   Al3        1.0     0.085191     0.314420     0.066920    Uiso  ? Al
   Al3        1.0     0.085191     0.314420     0.209777    Uiso  ? Al
   Al3        1.0     0.085191     0.314420     0.352634    Uiso  ? Al
   Al3        1.0     0.085191     0.314420     0.495491    Uiso  ? Al
   Al3        1.0     0.085191     0.314420     0.638349    Uiso  ? Al
   Al3        1.0     0.085191     0.314420     0.781206    Uiso  ? Al
   Al3        1.0     0.085191     0.314420     0.924063    Uiso  ? Al
   Al3        1.0     0.085191     0.564420     0.066920    Uiso  ? Al
   Al3        1.0     0.085191     0.564420     0.209777    Uiso  ? Al
   Al3        1.0     0.085191     0.564420     0.352634    Uiso  ? Al
   Al3        1.0     0.085191     0.564420     0.495491    Uiso  ? Al
   Al3        1.0     0.085191     0.564420     0.638349    Uiso  ? Al
   Al3        1.0     0.085191     0.564420     0.781206    Uiso  ? Al
   Al3        1.0     0.085191     0.564420     0.924063    Uiso  ? Al
   Al3        1.0     0.085191     0.814420     0.066920    Uiso  ? Al
   Al3        1.0     0.085191     0.814420     0.209777    Uiso  ? Al
   Al3        1.0     0.085191     0.814420     0.352634    Uiso  ? Al
   Al3        1.0     0.085191     0.814420     0.495491    Uiso  ? Al
   Al3        1.0     0.085191     0.814420     0.638349    Uiso  ? Al
   Al3        1.0     0.085191     0.814420     0.781206    Uiso  ? Al
   Al3        1.0     0.085191     0.814420     0.924063    Uiso  ? Al
   Al3        1.0     0.418525     0.064420     0.066920    Uiso  ? Al
   Al3        1.0     0.418525     0.064420     0.209777    Uiso  ? Al
   Al3        1.0     0.418525     0.064420     0.352634    Uiso  ? Al
   Al3        1.0     0.418525     0.064420     0.495491    Uiso  ? Al
   Al3        1.0     0.418525     0.064420     0.638349    Uiso  ? Al
   Al3        1.0     0.418525     0.064420     0.781206    Uiso  ? Al
   Al3        1.0     0.418525     0.064420     0.924063    Uiso  ? Al
   Al3        1.0     0.418525     0.314420     0.066920    Uiso  ? Al
   Al3        1.0     0.418525     0.314420     0.209777    Uiso  ? Al
   Al3        1.0     0.418525     0.314420     0.352634    Uiso  ? Al
   Al3        1.0     0.418525     0.314420     0.495491    Uiso  ? Al
   Al3        1.0     0.418525     0.314420     0.638349    Uiso  ? Al
   Al3        1.0     0.418525     0.314420     0.781206    Uiso  ? Al
   Al3        1.0     0.418525     0.314420     0.924063    Uiso  ? Al
   Al3        1.0     0.418525     0.564420     0.066920    Uiso  ? Al
   Al3        1.0     0.418525     0.564420     0.209777    Uiso  ? Al
   Al3        1.0     0.418525     0.564420     0.352634    Uiso  ? Al
   Al3        1.0     0.418525     0.564420     0.495491    Uiso  ? Al
   Al3        1.0     0.418525     0.564420     0.638349    Uiso  ? Al
   Al3        1.0     0.418525     0.564420     0.781206    Uiso  ? Al
   Al3        1.0     0.418525     0.564420     0.924063    Uiso  ? Al
   Al3        1.0     0.418525     0.814420     0.066920    Uiso  ? Al
   Al3        1.0     0.418525     0.814420     0.209777    Uiso  ? Al
   Al3        1.0     0.418525     0.814420     0.352634    Uiso  ? Al
   Al3        1.0     0.418525     0.814420     0.495491    Uiso  ? Al
   Al3        1.0     0.418525     0.814420     0.638349    Uiso  ? Al
   Al3        1.0     0.418525     0.814420     0.781206    Uiso  ? Al
   Al3        1.0     0.418525     0.814420     0.924063    Uiso  ? Al
   Al3        1.0     0.751858     0.064420     0.066920    Uiso  ? Al
   Al3        1.0     0.751858     0.064420     0.209777    Uiso  ? Al
   Al3        1.0     0.751858     0.064420     0.352634    Uiso  ? Al
   Al3        1.0     0.751858     0.064420     0.495491    Uiso  ? Al
   Al3        1.0     0.751858     0.064420     0.638349    Uiso  ? Al
   Al3        1.0     0.751858     0.064420     0.781206    Uiso  ? Al
   Al3        1.0     0.751858     0.064420     0.924063    Uiso  ? Al
   Al3        1.0     0.751858     0.314420     0.066920    Uiso  ? Al
   Al3        1.0     0.751858     0.314420     0.209777    Uiso  ? Al
   Al3        1.0     0.751858     0.314420     0.352634    Uiso  ? Al
   Al3        1.0     0.751858     0.314420     0.495491    Uiso  ? Al
   Al3        1.0     0.751858     0.314420     0.638349    Uiso  ? Al
   Al3        1.0     0.751858     0.314420     0.781206    Uiso  ? Al
   Al3        1.0     0.751858     0.314420     0.924063    Uiso  ? Al
   Al3        1.0     0.751858     0.564420     0.066920    Uiso  ? Al
   Al3        1.0     0.751858     0.564420     0.209777    Uiso  ? Al
   Al3        1.0     0.751858     0.564420     0.352634    Uiso  ? Al
   Al3        1.0     0.751858     0.564420     0.495491    Uiso  ? Al
   Al3        1.0     0.751858     0.564420     0.638349    Uiso  ? Al
   Al3        1.0     0.751858     0.564420     0.781206    Uiso  ? Al
   Al3        1.0     0.751858     0.564420     0.924063    Uiso  ? Al
   Al3        1.0     0.751858     0.814420     0.066920    Uiso  ? Al
   Al3        1.0     0.751858     0.814420     0.209777    Uiso  ? Al
   Al3        1.0     0.751858     0.814420     0.352634    Uiso  ? Al
   Al3        1.0     0.751858     0.814420     0.495491    Uiso  ? Al
   Al3        1.0     0.751858     0.814420     0.638349    Uiso  ? Al
   Al3        1.0     0.751858     0.814420     0.781206    Uiso  ? Al
   Al3        1.0     0.751858     0.814420     0.924063    Uiso  ? Al
   Al4        1.0     0.251707     0.186567     0.002403    Uiso  ? Al
   Al4        1.0     0.251707     0.186567     0.145260    Uiso  ? Al
   Al4        1.0     0.251707     0.186567     0.288117    Uiso  ? Al
   Al4        1.0     0.251707     0.186567     0.430974    Uiso  ? Al
   Al4        1.0     0.251707     0.186567     0.573831    Uiso  ? Al
   Al4        1.0     0.251707     0.186567     0.716689    Uiso  ? Al
   Al4        1.0     0.251707     0.186567     0.859546    Uiso  ? Al
   Al4        1.0     0.251707     0.436567     0.002403    Uiso  ? Al
   Al4        1.0     0.251707     0.436567     0.145260    Uiso  ? Al
   Al4        1.0     0.251707     0.436567     0.288117    Uiso  ? Al
   Al4        1.0     0.251707     0.436567     0.430974    Uiso  ? Al
   Al4        1.0     0.251707     0.436567     0.573831    Uiso  ? Al
   Al4        1.0     0.251707     0.436567     0.716689    Uiso  ? Al
   Al4        1.0     0.251707     0.436567     0.859546    Uiso  ? Al
   Al4        1.0     0.251707     0.686567     0.002403    Uiso  ? Al
   Al4        1.0     0.251707     0.686567     0.145260    Uiso  ? Al
   Al4        1.0     0.251707     0.686567     0.288117    Uiso  ? Al
   Al4        1.0     0.251707     0.686567     0.430974    Uiso  ? Al
   Al4        1.0     0.251707     0.686567     0.573831    Uiso  ? Al
   Al4        1.0     0.251707     0.686567     0.716689    Uiso  ? Al
   Al4        1.0     0.251707     0.686567     0.859546    Uiso  ? Al
   Al4        1.0     0.251707     0.936567     0.002403    Uiso  ? Al
   Al4        1.0     0.251707     0.936567     0.145260    Uiso  ? Al
   Al4        1.0     0.251707     0.936567     0.288117    Uiso  ? Al
   Al4        1.0     0.251707     0.936567     0.430974    Uiso  ? Al
   Al4        1.0     0.251707     0.936567     0.573831    Uiso  ? Al
   Al4        1.0     0.251707     0.936567     0.716689    Uiso  ? Al
   Al4        1.0     0.251707     0.936567     0.859546    Uiso  ? Al
   Al4        1.0     0.585040     0.186567     0.002403    Uiso  ? Al
   Al4        1.0     0.585040     0.186567     0.145260    Uiso  ? Al
   Al4        1.0     0.585040     0.186567     0.288117    Uiso  ? Al
   Al4        1.0     0.585040     0.186567     0.430974    Uiso  ? Al
   Al4        1.0     0.585040     0.186567     0.573831    Uiso  ? Al
   Al4        1.0     0.585040     0.186567     0.716689    Uiso  ? Al
   Al4        1.0     0.585040     0.186567     0.859546    Uiso  ? Al
   Al4        1.0     0.585040     0.436567     0.002403    Uiso  ? Al
   Al4        1.0     0.585040     0.436567     0.145260    Uiso  ? Al
   Al4        1.0     0.585040     0.436567     0.288117    Uiso  ? Al
   Al4        1.0     0.585040     0.436567     0.430974    Uiso  ? Al
   Al4        1.0     0.585040     0.436567     0.573831    Uiso  ? Al
   Al4        1.0     0.585040     0.436567     0.716689    Uiso  ? Al
   Al4        1.0     0.585040     0.436567     0.859546    Uiso  ? Al
   Al4        1.0     0.585040     0.686567     0.002403    Uiso  ? Al
   Al4        1.0     0.585040     0.686567     0.145260    Uiso  ? Al
   Al4        1.0     0.585040     0.686567     0.288117    Uiso  ? Al
   Al4        1.0     0.585040     0.686567     0.430974    Uiso  ? Al
   Al4        1.0     0.585040     0.686567     0.573831    Uiso  ? Al
   Al4        1.0     0.585040     0.686567     0.716689    Uiso  ? Al
   Al4        1.0     0.585040     0.686567     0.859546    Uiso  ? Al
   Al4        1.0     0.585040     0.936567     0.002403    Uiso  ? Al
   Al4        1.0     0.585040     0.936567     0.145260    Uiso  ? Al
   Al4        1.0     0.585040     0.936567     0.288117    Uiso  ? Al
   Al4        1.0     0.585040     0.936567     0.430974    Uiso  ? Al
   Al4        1.0     0.585040     0.936567     0.573831    Uiso  ? Al
   Al4        1.0     0.585040     0.936567     0.716689    Uiso  ? Al
   Al4        1.0     0.585040     0.936567     0.859546    Uiso  ? Al
   Al4        1.0     0.918373     0.186567     0.002403    Uiso  ? Al
   Al4        1.0     0.918373     0.186567     0.145260    Uiso  ? Al
   Al4        1.0     0.918373     0.186567     0.288117    Uiso  ? Al
   Al4        1.0     0.918373     0.186567     0.430974    Uiso  ? Al
   Al4        1.0     0.918373     0.186567     0.573831    Uiso  ? Al
   Al4        1.0     0.918373     0.186567     0.716689    Uiso  ? Al
   Al4        1.0     0.918373     0.186567     0.859546    Uiso  ? Al
   Al4        1.0     0.918373     0.436567     0.002403    Uiso  ? Al
   Al4        1.0     0.918373     0.436567     0.145260    Uiso  ? Al
   Al4        1.0     0.918373     0.436567     0.288117    Uiso  ? Al
   Al4        1.0     0.918373     0.436567     0.430974    Uiso  ? Al
   Al4        1.0     0.918373     0.436567     0.573831    Uiso  ? Al
   Al4        1.0     0.918373     0.436567     0.716689    Uiso  ? Al
   Al4        1.0     0.918373     0.436567     0.859546    Uiso  ? Al
   Al4        1.0     0.918373     0.686567     0.002403    Uiso  ? Al
   Al4        1.0     0.918373     0.686567     0.145260    Uiso  ? Al
   Al4        1.0     0.918373     0.686567     0.288117    Uiso  ? Al
   Al4        1.0     0.918373     0.686567     0.430974    Uiso  ? Al
   Al4        1.0     0.918373     0.686567     0.573831    Uiso  ? Al
   Al4        1.0     0.918373     0.686567     0.716689    Uiso  ? Al
   Al4        1.0     0.918373     0.686567     0.859546    Uiso  ? Al
   Al4        1.0     0.918373     0.936567     0.002403    Uiso  ? Al
   Al4        1.0     0.918373     0.936567     0.145260    Uiso  ? Al
   Al4        1.0     0.918373     0.936567     0.288117    Uiso  ? Al
   Al4        1.0     0.918373     0.936567     0.430974    Uiso  ? Al
   Al4        1.0     0.918373     0.936567     0.573831    Uiso  ? Al
   Al4        1.0     0.918373     0.936567     0.716689    Uiso  ? Al
   Al4        1.0     0.918373     0.936567     0.859546    Uiso  ? Al
   C1         1.0     0.202367     0.005995     0.140691    Uiso  ? C
   C1         1.0     0.202367     0.005995     0.283549    Uiso  ? C
   C1         1.0     0.202367     0.005995     0.426406    Uiso  ? C
   C1         1.0     0.202367     0.005995     0.569263    Uiso  ? C
   C1         1.0     0.202367     0.005995     0.712120    Uiso  ? C
   C1         1.0     0.202367     0.005995     0.854977    Uiso  ? C
   C1         1.0     0.202367     0.005995     0.997834    Uiso  ? C
   C1         1.0     0.202367     0.255995     0.140691    Uiso  ? C
   C1         1.0     0.202367     0.255995     0.283549    Uiso  ? C
   C1         1.0     0.202367     0.255995     0.426406    Uiso  ? C
   C1         1.0     0.202367     0.255995     0.569263    Uiso  ? C
   C1         1.0     0.202367     0.255995     0.712120    Uiso  ? C
   C1         1.0     0.202367     0.255995     0.854977    Uiso  ? C
   C1         1.0     0.202367     0.255995     0.997834    Uiso  ? C
   C1         1.0     0.202367     0.505995     0.140691    Uiso  ? C
   C1         1.0     0.202367     0.505995     0.283549    Uiso  ? C
   C1         1.0     0.202367     0.505995     0.426406    Uiso  ? C
   C1         1.0     0.202367     0.505995     0.569263    Uiso  ? C
   C1         1.0     0.202367     0.505995     0.712120    Uiso  ? C
   C1         1.0     0.202367     0.505995     0.854977    Uiso  ? C
   C1         1.0     0.202367     0.505995     0.997834    Uiso  ? C
   C1         1.0     0.202367     0.755995     0.140691    Uiso  ? C
   C1         1.0     0.202367     0.755995     0.283549    Uiso  ? C
   C1         1.0     0.202367     0.755995     0.426406    Uiso  ? C
   C1         1.0     0.202367     0.755995     0.569263    Uiso  ? C
   C1         1.0     0.202367     0.755995     0.712120    Uiso  ? C
   C1         1.0     0.202367     0.755995     0.854977    Uiso  ? C
   C1         1.0     0.202367     0.755995     0.997834    Uiso  ? C
   C1         1.0     0.535700     0.005995     0.140691    Uiso  ? C
   C1         1.0     0.535700     0.005995     0.283549    Uiso  ? C
   C1         1.0     0.535700     0.005995     0.426406    Uiso  ? C
   C1         1.0     0.535700     0.005995     0.569263    Uiso  ? C
   C1         1.0     0.535700     0.005995     0.712120    Uiso  ? C
   C1         1.0     0.535700     0.005995     0.854977    Uiso  ? C
   C1         1.0     0.535700     0.005995     0.997834    Uiso  ? C
   C1         1.0     0.535700     0.255995     0.140691    Uiso  ? C
   C1         1.0     0.535700     0.255995     0.283549    Uiso  ? C
   C1         1.0     0.535700     0.255995     0.426406    Uiso  ? C
   C1         1.0     0.535700     0.255995     0.569263    Uiso  ? C
   C1         1.0     0.535700     0.255995     0.712120    Uiso  ? C
   C1         1.0     0.535700     0.255995     0.854977    Uiso  ? C
   C1         1.0     0.535700     0.255995     0.997834    Uiso  ? C
   C1         1.0     0.535700     0.505995     0.140691    Uiso  ? C
   C1         1.0     0.535700     0.505995     0.283549    Uiso  ? C
   C1         1.0     0.535700     0.505995     0.426406    Uiso  ? C
   C1         1.0     0.535700     0.505995     0.569263    Uiso  ? C
   C1         1.0     0.535700     0.505995     0.712120    Uiso  ? C
   C1         1.0     0.535700     0.505995     0.854977    Uiso  ? C
   C1         1.0     0.535700     0.505995     0.997834    Uiso  ? C
   C1         1.0     0.535700     0.755995     0.140691    Uiso  ? C
   C1         1.0     0.535700     0.755995     0.283549    Uiso  ? C
   C1         1.0     0.535700     0.755995     0.426406    Uiso  ? C
   C1         1.0     0.535700     0.755995     0.569263    Uiso  ? C
   C1         1.0     0.535700     0.755995     0.712120    Uiso  ? C
   C1         1.0     0.535700     0.755995     0.854977    Uiso  ? C
   C1         1.0     0.535700     0.755995     0.997834    Uiso  ? C
   C1         1.0     0.869033     0.005995     0.140691    Uiso  ? C
   C1         1.0     0.869033     0.005995     0.283549    Uiso  ? C
   C1         1.0     0.869033     0.005995     0.426406    Uiso  ? C
   C1         1.0     0.869033     0.005995     0.569263    Uiso  ? C
   C1         1.0     0.869033     0.005995     0.712120    Uiso  ? C
   C1         1.0     0.869033     0.005995     0.854977    Uiso  ? C
   C1         1.0     0.869033     0.005995     0.997834    Uiso  ? C
   C1         1.0     0.869033     0.255995     0.140691    Uiso  ? C
   C1         1.0     0.869033     0.255995     0.283549    Uiso  ? C
   C1         1.0     0.869033     0.255995     0.426406    Uiso  ? C
   C1         1.0     0.869033     0.255995     0.569263    Uiso  ? C
   C1         1.0     0.869033     0.255995     0.712120    Uiso  ? C
   C1         1.0     0.869033     0.255995     0.854977    Uiso  ? C
   C1         1.0     0.869033     0.255995     0.997834    Uiso  ? C
   C1         1.0     0.869033     0.505995     0.140691    Uiso  ? C
   C1         1.0     0.869033     0.505995     0.283549    Uiso  ? C
   C1         1.0     0.869033     0.505995     0.426406    Uiso  ? C
   C1         1.0     0.869033     0.505995     0.569263    Uiso  ? C
   C1         1.0     0.869033     0.505995     0.712120    Uiso  ? C
   C1         1.0     0.869033     0.505995     0.854977    Uiso  ? C
   C1         1.0     0.869033     0.505995     0.997834    Uiso  ? C
   C1         1.0     0.869033     0.755995     0.140691    Uiso  ? C
   C1         1.0     0.869033     0.755995     0.283549    Uiso  ? C
   C1         1.0     0.869033     0.755995     0.426406    Uiso  ? C
   C1         1.0     0.869033     0.755995     0.569263    Uiso  ? C
   C1         1.0     0.869033     0.755995     0.712120    Uiso  ? C
   C1         1.0     0.869033     0.755995     0.854977    Uiso  ? C
   C1         1.0     0.869033     0.755995     0.997834    Uiso  ? C
   C2         1.0     0.143142     0.153538     0.138824    Uiso  ? C
   C2         1.0     0.143142     0.153538     0.281681    Uiso  ? C
   C2         1.0     0.143142     0.153538     0.424538    Uiso  ? C
   C2         1.0     0.143142     0.153538     0.567395    Uiso  ? C
   C2         1.0     0.143142     0.153538     0.710253    Uiso  ? C
   C2         1.0     0.143142     0.153538     0.853110    Uiso  ? C
   C2         1.0     0.143142     0.153538     0.995967    Uiso  ? C
   C2         1.0     0.143142     0.403538     0.138824    Uiso  ? C
   C2         1.0     0.143142     0.403538     0.281681    Uiso  ? C
   C2         1.0     0.143142     0.403538     0.424538    Uiso  ? C
   C2         1.0     0.143142     0.403538     0.567395    Uiso  ? C
   C2         1.0     0.143142     0.403538     0.710253    Uiso  ? C
   C2         1.0     0.143142     0.403538     0.853110    Uiso  ? C
   C2         1.0     0.143142     0.403538     0.995967    Uiso  ? C
   C2         1.0     0.143142     0.653538     0.138824    Uiso  ? C
   C2         1.0     0.143142     0.653538     0.281681    Uiso  ? C
   C2         1.0     0.143142     0.653538     0.424538    Uiso  ? C
   C2         1.0     0.143142     0.653538     0.567395    Uiso  ? C
   C2         1.0     0.143142     0.653538     0.710253    Uiso  ? C
   C2         1.0     0.143142     0.653538     0.853110    Uiso  ? C
   C2         1.0     0.143142     0.653538     0.995967    Uiso  ? C
   C2         1.0     0.143142     0.903538     0.138824    Uiso  ? C
   C2         1.0     0.143142     0.903538     0.281681    Uiso  ? C
   C2         1.0     0.143142     0.903538     0.424538    Uiso  ? C
   C2         1.0     0.143142     0.903538     0.567395    Uiso  ? C
   C2         1.0     0.143142     0.903538     0.710253    Uiso  ? C
   C2         1.0     0.143142     0.903538     0.853110    Uiso  ? C
   C2         1.0     0.143142     0.903538     0.995967    Uiso  ? C
   C2         1.0     0.476475     0.153538     0.138824    Uiso  ? C
   C2         1.0     0.476475     0.153538     0.281681    Uiso  ? C
   C2         1.0     0.476475     0.153538     0.424538    Uiso  ? C
   C2         1.0     0.476475     0.153538     0.567395    Uiso  ? C
   C2         1.0     0.476475     0.153538     0.710253    Uiso  ? C
   C2         1.0     0.476475     0.153538     0.853110    Uiso  ? C
   C2         1.0     0.476475     0.153538     0.995967    Uiso  ? C
   C2         1.0     0.476475     0.403538     0.138824    Uiso  ? C
   C2         1.0     0.476475     0.403538     0.281681    Uiso  ? C
   C2         1.0     0.476475     0.403538     0.424538    Uiso  ? C
   C2         1.0     0.476475     0.403538     0.567395    Uiso  ? C
   C2         1.0     0.476475     0.403538     0.710253    Uiso  ? C
   C2         1.0     0.476475     0.403538     0.853110    Uiso  ? C
   C2         1.0     0.476475     0.403538     0.995967    Uiso  ? C
   C2         1.0     0.476475     0.653538     0.138824    Uiso  ? C
   C2         1.0     0.476475     0.653538     0.281681    Uiso  ? C
   C2         1.0     0.476475     0.653538     0.424538    Uiso  ? C
   C2         1.0     0.476475     0.653538     0.567395    Uiso  ? C
   C2         1.0     0.476475     0.653538     0.710253    Uiso  ? C
   C2         1.0     0.476475     0.653538     0.853110    Uiso  ? C
   C2         1.0     0.476475     0.653538     0.995967    Uiso  ? C
   C2         1.0     0.476475     0.903538     0.138824    Uiso  ? C
   C2         1.0     0.476475     0.903538     0.281681    Uiso  ? C
   C2         1.0     0.476475     0.903538     0.424538    Uiso  ? C
   C2         1.0     0.476475     0.903538     0.567395    Uiso  ? C
   C2         1.0     0.476475     0.903538     0.710253    Uiso  ? C
   C2         1.0     0.476475     0.903538     0.853110    Uiso  ? C
   C2         1.0     0.476475     0.903538     0.995967    Uiso  ? C
   C2         1.0     0.809809     0.153538     0.138824    Uiso  ? C
   C2         1.0     0.809809     0.153538     0.281681    Uiso  ? C
   C2         1.0     0.809809     0.153538     0.424538    Uiso  ? C
   C2         1.0     0.809809     0.153538     0.567395    Uiso  ? C
   C2         1.0     0.809809     0.153538     0.710253    Uiso  ? C
   C2         1.0     0.809809     0.153538     0.853110    Uiso  ? C
   C2         1.0     0.809809     0.153538     0.995967    Uiso  ? C
   C2         1.0     0.809809     0.403538     0.138824    Uiso  ? C
   C2         1.0     0.809809     0.403538     0.281681    Uiso  ? C
   C2         1.0     0.809809     0.403538     0.424538    Uiso  ? C
   C2         1.0     0.809809     0.403538     0.567395    Uiso  ? C
   C2         1.0     0.809809     0.403538     0.710253    Uiso  ? C
   C2         1.0     0.809809     0.403538     0.853110    Uiso  ? C
   C2         1.0     0.809809     0.403538     0.995967    Uiso  ? C
   C2         1.0     0.809809     0.653538     0.138824    Uiso  ? C
   C2         1.0     0.809809     0.653538     0.281681    Uiso  ? C
   C2         1.0     0.809809     0.653538     0.424538    Uiso  ? C
   C2         1.0     0.809809     0.653538     0.567395    Uiso  ? C
   C2         1.0     0.809809     0.653538     0.710253    Uiso  ? C
   C2         1.0     0.809809     0.653538     0.853110    Uiso  ? C
   C2         1.0     0.809809     0.653538     0.995967    Uiso  ? C
   C2         1.0     0.809809     0.903538     0.138824    Uiso  ? C
   C2         1.0     0.809809     0.903538     0.281681    Uiso  ? C
   C2         1.0     0.809809     0.903538     0.424538    Uiso  ? C
   C2         1.0     0.809809     0.903538     0.567395    Uiso  ? C
   C2         1.0     0.809809     0.903538     0.710253    Uiso  ? C
   C2         1.0     0.809809     0.903538     0.853110    Uiso  ? C
   C2         1.0     0.809809     0.903538     0.995967    Uiso  ? C
   C3         1.0     0.198791     0.120935     0.140425    Uiso  ? C
   C3         1.0     0.198791     0.120935     0.283282    Uiso  ? C
   C3         1.0     0.198791     0.120935     0.426140    Uiso  ? C
   C3         1.0     0.198791     0.120935     0.568997    Uiso  ? C
   C3         1.0     0.198791     0.120935     0.711854    Uiso  ? C
   C3         1.0     0.198791     0.120935     0.854711    Uiso  ? C
   C3         1.0     0.198791     0.120935     0.997568    Uiso  ? C
   C3         1.0     0.198791     0.370935     0.140425    Uiso  ? C
   C3         1.0     0.198791     0.370935     0.283282    Uiso  ? C
   C3         1.0     0.198791     0.370935     0.426140    Uiso  ? C
   C3         1.0     0.198791     0.370935     0.568997    Uiso  ? C
   C3         1.0     0.198791     0.370935     0.711854    Uiso  ? C
   C3         1.0     0.198791     0.370935     0.854711    Uiso  ? C
   C3         1.0     0.198791     0.370935     0.997568    Uiso  ? C
   C3         1.0     0.198791     0.620935     0.140425    Uiso  ? C
   C3         1.0     0.198791     0.620935     0.283282    Uiso  ? C
   C3         1.0     0.198791     0.620935     0.426140    Uiso  ? C
   C3         1.0     0.198791     0.620935     0.568997    Uiso  ? C
   C3         1.0     0.198791     0.620935     0.711854    Uiso  ? C
   C3         1.0     0.198791     0.620935     0.854711    Uiso  ? C
   C3         1.0     0.198791     0.620935     0.997568    Uiso  ? C
   C3         1.0     0.198791     0.870935     0.140425    Uiso  ? C
   C3         1.0     0.198791     0.870935     0.283282    Uiso  ? C
   C3         1.0     0.198791     0.870935     0.426140    Uiso  ? C
   C3         1.0     0.198791     0.870935     0.568997    Uiso  ? C
   C3         1.0     0.198791     0.870935     0.711854    Uiso  ? C
   C3         1.0     0.198791     0.870935     0.854711    Uiso  ? C
   C3         1.0     0.198791     0.870935     0.997568    Uiso  ? C
   C3         1.0     0.532125     0.120935     0.140425    Uiso  ? C
   C3         1.0     0.532125     0.120935     0.283282    Uiso  ? C
   C3         1.0     0.532125     0.120935     0.426140    Uiso  ? C
   C3         1.0     0.532125     0.120935     0.568997    Uiso  ? C
   C3         1.0     0.532125     0.120935     0.711854    Uiso  ? C
   C3         1.0     0.532125     0.120935     0.854711    Uiso  ? C
   C3         1.0     0.532125     0.120935     0.997568    Uiso  ? C
   C3         1.0     0.532125     0.370935     0.140425    Uiso  ? C
   C3         1.0     0.532125     0.370935     0.283282    Uiso  ? C
   C3         1.0     0.532125     0.370935     0.426140    Uiso  ? C
   C3         1.0     0.532125     0.370935     0.568997    Uiso  ? C
   C3         1.0     0.532125     0.370935     0.711854    Uiso  ? C
   C3         1.0     0.532125     0.370935     0.854711    Uiso  ? C
   C3         1.0     0.532125     0.370935     0.997568    Uiso  ? C
   C3         1.0     0.532125     0.620935     0.140425    Uiso  ? C
   C3         1.0     0.532125     0.620935     0.283282    Uiso  ? C
   C3         1.0     0.532125     0.620935     0.426140    Uiso  ? C
   C3         1.0     0.532125     0.620935     0.568997    Uiso  ? C
   C3         1.0     0.532125     0.620935     0.711854    Uiso  ? C
   C3         1.0     0.532125     0.620935     0.854711    Uiso  ? C
   C3         1.0     0.532125     0.620935     0.997568    Uiso  ? C
   C3         1.0     0.532125     0.870935     0.140425    Uiso  ? C
   C3         1.0     0.532125     0.870935     0.283282    Uiso  ? C
   C3         1.0     0.532125     0.870935     0.426140    Uiso  ? C
   C3         1.0     0.532125     0.870935     0.568997    Uiso  ? C
   C3         1.0     0.532125     0.870935     0.711854    Uiso  ? C
   C3         1.0     0.532125     0.870935     0.854711    Uiso  ? C
   C3         1.0     0.532125     0.870935     0.997568    Uiso  ? C
   C3         1.0     0.865458     0.120935     0.140425    Uiso  ? C
   C3         1.0     0.865458     0.120935     0.283282    Uiso  ? C
   C3         1.0     0.865458     0.120935     0.426140    Uiso  ? C
   C3         1.0     0.865458     0.120935     0.568997    Uiso  ? C
   C3         1.0     0.865458     0.120935     0.711854    Uiso  ? C
   C3         1.0     0.865458     0.120935     0.854711    Uiso  ? C
   C3         1.0     0.865458     0.120935     0.997568    Uiso  ? C
   C3         1.0     0.865458     0.370935     0.140425    Uiso  ? C
   C3         1.0     0.865458     0.370935     0.283282    Uiso  ? C
   C3         1.0     0.865458     0.370935     0.426140    Uiso  ? C
   C3         1.0     0.865458     0.370935     0.568997    Uiso  ? C
   C3         1.0     0.865458     0.370935     0.711854    Uiso  ? C
   C3         1.0     0.865458     0.370935     0.854711    Uiso  ? C
   C3         1.0     0.865458     0.370935     0.997568    Uiso  ? C
   C3         1.0     0.865458     0.620935     0.140425    Uiso  ? C
   C3         1.0     0.865458     0.620935     0.283282    Uiso  ? C
   C3         1.0     0.865458     0.620935     0.426140    Uiso  ? C
   C3         1.0     0.865458     0.620935     0.568997    Uiso  ? C
   C3         1.0     0.865458     0.620935     0.711854    Uiso  ? C
   C3         1.0     0.865458     0.620935     0.854711    Uiso  ? C
   C3         1.0     0.865458     0.620935     0.997568    Uiso  ? C
   C3         1.0     0.865458     0.870935     0.140425    Uiso  ? C
   C3         1.0     0.865458     0.870935     0.283282    Uiso  ? C
   C3         1.0     0.865458     0.870935     0.426140    Uiso  ? C
   C3         1.0     0.865458     0.870935     0.568997    Uiso  ? C
   C3         1.0     0.865458     0.870935     0.711854    Uiso  ? C
   C3         1.0     0.865458     0.870935     0.854711    Uiso  ? C
   C3         1.0     0.865458     0.870935     0.997568    Uiso  ? C
   C4         1.0     0.144474     0.226837     0.138627    Uiso  ? C
   C4         1.0     0.144474     0.226837     0.281484    Uiso  ? C
   C4         1.0     0.144474     0.226837     0.424341    Uiso  ? C
   C4         1.0     0.144474     0.226837     0.567199    Uiso  ? C
   C4         1.0     0.144474     0.226837     0.710056    Uiso  ? C
   C4         1.0     0.144474     0.226837     0.852913    Uiso  ? C
   C4         1.0     0.144474     0.226837     0.995770    Uiso  ? C
   C4         1.0     0.144474     0.476837     0.138627    Uiso  ? C
   C4         1.0     0.144474     0.476837     0.281484    Uiso  ? C
   C4         1.0     0.144474     0.476837     0.424341    Uiso  ? C
   C4         1.0     0.144474     0.476837     0.567199    Uiso  ? C
   C4         1.0     0.144474     0.476837     0.710056    Uiso  ? C
   C4         1.0     0.144474     0.476837     0.852913    Uiso  ? C
   C4         1.0     0.144474     0.476837     0.995770    Uiso  ? C
   C4         1.0     0.144474     0.726837     0.138627    Uiso  ? C
   C4         1.0     0.144474     0.726837     0.281484    Uiso  ? C
   C4         1.0     0.144474     0.726837     0.424341    Uiso  ? C
   C4         1.0     0.144474     0.726837     0.567199    Uiso  ? C
   C4         1.0     0.144474     0.726837     0.710056    Uiso  ? C
   C4         1.0     0.144474     0.726837     0.852913    Uiso  ? C
   C4         1.0     0.144474     0.726837     0.995770    Uiso  ? C
   C4         1.0     0.144474     0.976837     0.138627    Uiso  ? C
   C4         1.0     0.144474     0.976837     0.281484    Uiso  ? C
   C4         1.0     0.144474     0.976837     0.424341    Uiso  ? C
   C4         1.0     0.144474     0.976837     0.567199    Uiso  ? C
   C4         1.0     0.144474     0.976837     0.710056    Uiso  ? C
   C4         1.0     0.144474     0.976837     0.852913    Uiso  ? C
   C4         1.0     0.144474     0.976837     0.995770    Uiso  ? C
   C4         1.0     0.477808     0.226837     0.138627    Uiso  ? C
   C4         1.0     0.477808     0.226837     0.281484    Uiso  ? C
   C4         1.0     0.477808     0.226837     0.424341    Uiso  ? C
   C4         1.0     0.477808     0.226837     0.567199    Uiso  ? C
   C4         1.0     0.477808     0.226837     0.710056    Uiso  ? C
   C4         1.0     0.477808     0.226837     0.852913    Uiso  ? C
   C4         1.0     0.477808     0.226837     0.995770    Uiso  ? C
   C4         1.0     0.477808     0.476837     0.138627    Uiso  ? C
   C4         1.0     0.477808     0.476837     0.281484    Uiso  ? C
   C4         1.0     0.477808     0.476837     0.424341    Uiso  ? C
   C4         1.0     0.477808     0.476837     0.567199    Uiso  ? C
   C4         1.0     0.477808     0.476837     0.710056    Uiso  ? C
   C4         1.0     0.477808     0.476837     0.852913    Uiso  ? C
   C4         1.0     0.477808     0.476837     0.995770    Uiso  ? C
   C4         1.0     0.477808     0.726837     0.138627    Uiso  ? C
   C4         1.0     0.477808     0.726837     0.281484    Uiso  ? C
   C4         1.0     0.477808     0.726837     0.424341    Uiso  ? C
   C4         1.0     0.477808     0.726837     0.567199    Uiso  ? C
   C4         1.0     0.477808     0.726837     0.710056    Uiso  ? C
   C4         1.0     0.477808     0.726837     0.852913    Uiso  ? C
   C4         1.0     0.477808     0.726837     0.995770    Uiso  ? C
   C4         1.0     0.477808     0.976837     0.138627    Uiso  ? C
   C4         1.0     0.477808     0.976837     0.281484    Uiso  ? C
   C4         1.0     0.477808     0.976837     0.424341    Uiso  ? C
   C4         1.0     0.477808     0.976837     0.567199    Uiso  ? C
   C4         1.0     0.477808     0.976837     0.710056    Uiso  ? C
   C4         1.0     0.477808     0.976837     0.852913    Uiso  ? C
   C4         1.0     0.477808     0.976837     0.995770    Uiso  ? C
   C4         1.0     0.811141     0.226837     0.138627    Uiso  ? C
   C4         1.0     0.811141     0.226837     0.281484    Uiso  ? C
   C4         1.0     0.811141     0.226837     0.424341    Uiso  ? C
   C4         1.0     0.811141     0.226837     0.567199    Uiso  ? C
   C4         1.0     0.811141     0.226837     0.710056    Uiso  ? C
   C4         1.0     0.811141     0.226837     0.852913    Uiso  ? C
   C4         1.0     0.811141     0.226837     0.995770    Uiso  ? C
   C4         1.0     0.811141     0.476837     0.138627    Uiso  ? C
   C4         1.0     0.811141     0.476837     0.281484    Uiso  ? C
   C4         1.0     0.811141     0.476837     0.424341    Uiso  ? C
   C4         1.0     0.811141     0.476837     0.567199    Uiso  ? C
   C4         1.0     0.811141     0.476837     0.710056    Uiso  ? C
   C4         1.0     0.811141     0.476837     0.852913    Uiso  ? C
   C4         1.0     0.811141     0.476837     0.995770    Uiso  ? C
   C4         1.0     0.811141     0.726837     0.138627    Uiso  ? C
   C4         1.0     0.811141     0.726837     0.281484    Uiso  ? C
   C4         1.0     0.811141     0.726837     0.424341    Uiso  ? C
   C4         1.0     0.811141     0.726837     0.567199    Uiso  ? C
   C4         1.0     0.811141     0.726837     0.710056    Uiso  ? C
   C4         1.0     0.811141     0.726837     0.852913    Uiso  ? C
   C4         1.0     0.811141     0.726837     0.995770    Uiso  ? C
   C4         1.0     0.811141     0.976837     0.138627    Uiso  ? C
   C4         1.0     0.811141     0.976837     0.281484    Uiso  ? C
   C4         1.0     0.811141     0.976837     0.424341    Uiso  ? C
   C4         1.0     0.811141     0.976837     0.567199    Uiso  ? C
   C4         1.0     0.811141     0.976837     0.710056    Uiso  ? C
   C4         1.0     0.811141     0.976837     0.852913    Uiso  ? C
   C4         1.0     0.811141     0.976837     0.995770    Uiso  ? C
   C5         1.0     0.175864     0.035119     0.122968    Uiso  ? C
   C5         1.0     0.175864     0.035119     0.265825    Uiso  ? C
   C5         1.0     0.175864     0.035119     0.408683    Uiso  ? C
   C5         1.0     0.175864     0.035119     0.551540    Uiso  ? C
   C5         1.0     0.175864     0.035119     0.694397    Uiso  ? C
   C5         1.0     0.175864     0.035119     0.837254    Uiso  ? C
   C5         1.0     0.175864     0.035119     0.980111    Uiso  ? C
   C5         1.0     0.175864     0.285119     0.122968    Uiso  ? C
   C5         1.0     0.175864     0.285119     0.265825    Uiso  ? C
   C5         1.0     0.175864     0.285119     0.408683    Uiso  ? C
   C5         1.0     0.175864     0.285119     0.551540    Uiso  ? C
   C5         1.0     0.175864     0.285119     0.694397    Uiso  ? C
   C5         1.0     0.175864     0.285119     0.837254    Uiso  ? C
   C5         1.0     0.175864     0.285119     0.980111    Uiso  ? C
   C5         1.0     0.175864     0.535119     0.122968    Uiso  ? C
   C5         1.0     0.175864     0.535119     0.265825    Uiso  ? C
   C5         1.0     0.175864     0.535119     0.408683    Uiso  ? C
   C5         1.0     0.175864     0.535119     0.551540    Uiso  ? C
   C5         1.0     0.175864     0.535119     0.694397    Uiso  ? C
   C5         1.0     0.175864     0.535119     0.837254    Uiso  ? C
   C5         1.0     0.175864     0.535119     0.980111    Uiso  ? C
   C5         1.0     0.175864     0.785119     0.122968    Uiso  ? C
   C5         1.0     0.175864     0.785119     0.265825    Uiso  ? C
   C5         1.0     0.175864     0.785119     0.408683    Uiso  ? C
   C5         1.0     0.175864     0.785119     0.551540    Uiso  ? C
   C5         1.0     0.175864     0.785119     0.694397    Uiso  ? C
   C5         1.0     0.175864     0.785119     0.837254    Uiso  ? C
   C5         1.0     0.175864     0.785119     0.980111    Uiso  ? C
   C5         1.0     0.509197     0.035119     0.122968    Uiso  ? C
   C5         1.0     0.509197     0.035119     0.265825    Uiso  ? C
   C5         1.0     0.509197     0.035119     0.408683    Uiso  ? C
   C5         1.0     0.509197     0.035119     0.551540    Uiso  ? C
   C5         1.0     0.509197     0.035119     0.694397    Uiso  ? C
   C5         1.0     0.509197     0.035119     0.837254    Uiso  ? C
   C5         1.0     0.509197     0.035119     0.980111    Uiso  ? C
   C5         1.0     0.509197     0.285119     0.122968    Uiso  ? C
   C5         1.0     0.509197     0.285119     0.265825    Uiso  ? C
   C5         1.0     0.509197     0.285119     0.408683    Uiso  ? C
   C5         1.0     0.509197     0.285119     0.551540    Uiso  ? C
   C5         1.0     0.509197     0.285119     0.694397    Uiso  ? C
   C5         1.0     0.509197     0.285119     0.837254    Uiso  ? C
   C5         1.0     0.509197     0.285119     0.980111    Uiso  ? C
   C5         1.0     0.509197     0.535119     0.122968    Uiso  ? C
   C5         1.0     0.509197     0.535119     0.265825    Uiso  ? C
   C5         1.0     0.509197     0.535119     0.408683    Uiso  ? C
   C5         1.0     0.509197     0.535119     0.551540    Uiso  ? C
   C5         1.0     0.509197     0.535119     0.694397    Uiso  ? C
   C5         1.0     0.509197     0.535119     0.837254    Uiso  ? C
   C5         1.0     0.509197     0.535119     0.980111    Uiso  ? C
   C5         1.0     0.509197     0.785119     0.122968    Uiso  ? C
   C5         1.0     0.509197     0.785119     0.265825    Uiso  ? C
   C5         1.0     0.509197     0.785119     0.408683    Uiso  ? C
   C5         1.0     0.509197     0.785119     0.551540    Uiso  ? C
   C5         1.0     0.509197     0.785119     0.694397    Uiso  ? C
   C5         1.0     0.509197     0.785119     0.837254    Uiso  ? C
   C5         1.0     0.509197     0.785119     0.980111    Uiso  ? C
   C5         1.0     0.842531     0.035119     0.122968    Uiso  ? C
   C5         1.0     0.842531     0.035119     0.265825    Uiso  ? C
   C5         1.0     0.842531     0.035119     0.408683    Uiso  ? C
   C5         1.0     0.842531     0.035119     0.551540    Uiso  ? C
   C5         1.0     0.842531     0.035119     0.694397    Uiso  ? C
   C5         1.0     0.842531     0.035119     0.837254    Uiso  ? C
   C5         1.0     0.842531     0.035119     0.980111    Uiso  ? C
   C5         1.0     0.842531     0.285119     0.122968    Uiso  ? C
   C5         1.0     0.842531     0.285119     0.265825    Uiso  ? C
   C5         1.0     0.842531     0.285119     0.408683    Uiso  ? C
   C5         1.0     0.842531     0.285119     0.551540    Uiso  ? C
   C5         1.0     0.842531     0.285119     0.694397    Uiso  ? C
   C5         1.0     0.842531     0.285119     0.837254    Uiso  ? C
   C5         1.0     0.842531     0.285119     0.980111    Uiso  ? C
   C5         1.0     0.842531     0.535119     0.122968    Uiso  ? C
   C5         1.0     0.842531     0.535119     0.265825    Uiso  ? C
   C5         1.0     0.842531     0.535119     0.408683    Uiso  ? C
   C5         1.0     0.842531     0.535119     0.551540    Uiso  ? C
   C5         1.0     0.842531     0.535119     0.694397    Uiso  ? C
   C5         1.0     0.842531     0.535119     0.837254    Uiso  ? C
   C5         1.0     0.842531     0.535119     0.980111    Uiso  ? C
   C5         1.0     0.842531     0.785119     0.122968    Uiso  ? C
   C5         1.0     0.842531     0.785119     0.265825    Uiso  ? C
   C5         1.0     0.842531     0.785119     0.408683    Uiso  ? C
   C5         1.0     0.842531     0.785119     0.551540    Uiso  ? C
   C5         1.0     0.842531     0.785119     0.694397    Uiso  ? C
   C5         1.0     0.842531     0.785119     0.837254    Uiso  ? C
   C5         1.0     0.842531     0.785119     0.980111    Uiso  ? C
   C6         1.0     0.175195     0.088592     0.122536    Uiso  ? C
   C6         1.0     0.175195     0.088592     0.265394    Uiso  ? C
   C6         1.0     0.175195     0.088592     0.408251    Uiso  ? C
   C6         1.0     0.175195     0.088592     0.551108    Uiso  ? C
   C6         1.0     0.175195     0.088592     0.693965    Uiso  ? C
   C6         1.0     0.175195     0.088592     0.836822    Uiso  ? C
   C6         1.0     0.175195     0.088592     0.979679    Uiso  ? C
   C6         1.0     0.175195     0.338592     0.122536    Uiso  ? C
   C6         1.0     0.175195     0.338592     0.265394    Uiso  ? C
   C6         1.0     0.175195     0.338592     0.408251    Uiso  ? C
   C6         1.0     0.175195     0.338592     0.551108    Uiso  ? C
   C6         1.0     0.175195     0.338592     0.693965    Uiso  ? C
   C6         1.0     0.175195     0.338592     0.836822    Uiso  ? C
   C6         1.0     0.175195     0.338592     0.979679    Uiso  ? C
   C6         1.0     0.175195     0.588592     0.122536    Uiso  ? C
   C6         1.0     0.175195     0.588592     0.265394    Uiso  ? C
   C6         1.0     0.175195     0.588592     0.408251    Uiso  ? C
   C6         1.0     0.175195     0.588592     0.551108    Uiso  ? C
   C6         1.0     0.175195     0.588592     0.693965    Uiso  ? C
   C6         1.0     0.175195     0.588592     0.836822    Uiso  ? C
   C6         1.0     0.175195     0.588592     0.979679    Uiso  ? C
   C6         1.0     0.175195     0.838592     0.122536    Uiso  ? C
   C6         1.0     0.175195     0.838592     0.265394    Uiso  ? C
   C6         1.0     0.175195     0.838592     0.408251    Uiso  ? C
   C6         1.0     0.175195     0.838592     0.551108    Uiso  ? C
   C6         1.0     0.175195     0.838592     0.693965    Uiso  ? C
   C6         1.0     0.175195     0.838592     0.836822    Uiso  ? C
   C6         1.0     0.175195     0.838592     0.979679    Uiso  ? C
   C6         1.0     0.508528     0.088592     0.122536    Uiso  ? C
   C6         1.0     0.508528     0.088592     0.265394    Uiso  ? C
   C6         1.0     0.508528     0.088592     0.408251    Uiso  ? C
   C6         1.0     0.508528     0.088592     0.551108    Uiso  ? C
   C6         1.0     0.508528     0.088592     0.693965    Uiso  ? C
   C6         1.0     0.508528     0.088592     0.836822    Uiso  ? C
   C6         1.0     0.508528     0.088592     0.979679    Uiso  ? C
   C6         1.0     0.508528     0.338592     0.122536    Uiso  ? C
   C6         1.0     0.508528     0.338592     0.265394    Uiso  ? C
   C6         1.0     0.508528     0.338592     0.408251    Uiso  ? C
   C6         1.0     0.508528     0.338592     0.551108    Uiso  ? C
   C6         1.0     0.508528     0.338592     0.693965    Uiso  ? C
   C6         1.0     0.508528     0.338592     0.836822    Uiso  ? C
   C6         1.0     0.508528     0.338592     0.979679    Uiso  ? C
   C6         1.0     0.508528     0.588592     0.122536    Uiso  ? C
   C6         1.0     0.508528     0.588592     0.265394    Uiso  ? C
   C6         1.0     0.508528     0.588592     0.408251    Uiso  ? C
   C6         1.0     0.508528     0.588592     0.551108    Uiso  ? C
   C6         1.0     0.508528     0.588592     0.693965    Uiso  ? C
   C6         1.0     0.508528     0.588592     0.836822    Uiso  ? C
   C6         1.0     0.508528     0.588592     0.979679    Uiso  ? C
   C6         1.0     0.508528     0.838592     0.122536    Uiso  ? C
   C6         1.0     0.508528     0.838592     0.265394    Uiso  ? C
   C6         1.0     0.508528     0.838592     0.408251    Uiso  ? C
   C6         1.0     0.508528     0.838592     0.551108    Uiso  ? C
   C6         1.0     0.508528     0.838592     0.693965    Uiso  ? C
   C6         1.0     0.508528     0.838592     0.836822    Uiso  ? C
   C6         1.0     0.508528     0.838592     0.979679    Uiso  ? C
   C6         1.0     0.841861     0.088592     0.122536    Uiso  ? C
   C6         1.0     0.841861     0.088592     0.265394    Uiso  ? C
   C6         1.0     0.841861     0.088592     0.408251    Uiso  ? C
   C6         1.0     0.841861     0.088592     0.551108    Uiso  ? C
   C6         1.0     0.841861     0.088592     0.693965    Uiso  ? C
   C6         1.0     0.841861     0.088592     0.836822    Uiso  ? C
   C6         1.0     0.841861     0.088592     0.979679    Uiso  ? C
   C6         1.0     0.841861     0.338592     0.122536    Uiso  ? C
   C6         1.0     0.841861     0.338592     0.265394    Uiso  ? C
   C6         1.0     0.841861     0.338592     0.408251    Uiso  ? C
   C6         1.0     0.841861     0.338592     0.551108    Uiso  ? C
   C6         1.0     0.841861     0.338592     0.693965    Uiso  ? C
   C6         1.0     0.841861     0.338592     0.836822    Uiso  ? C
   C6         1.0     0.841861     0.338592     0.979679    Uiso  ? C
   C6         1.0     0.841861     0.588592     0.122536    Uiso  ? C
   C6         1.0     0.841861     0.588592     0.265394    Uiso  ? C
   C6         1.0     0.841861     0.588592     0.408251    Uiso  ? C
   C6         1.0     0.841861     0.588592     0.551108    Uiso  ? C
   C6         1.0     0.841861     0.588592     0.693965    Uiso  ? C
   C6         1.0     0.841861     0.588592     0.836822    Uiso  ? C
   C6         1.0     0.841861     0.588592     0.979679    Uiso  ? C
   C6         1.0     0.841861     0.838592     0.122536    Uiso  ? C
   C6         1.0     0.841861     0.838592     0.265394    Uiso  ? C
   C6         1.0     0.841861     0.838592     0.408251    Uiso  ? C
   C6         1.0     0.841861     0.838592     0.551108    Uiso  ? C
   C6         1.0     0.841861     0.838592     0.693965    Uiso  ? C
   C6         1.0     0.841861     0.838592     0.836822    Uiso  ? C
   C6         1.0     0.841861     0.838592     0.979679    Uiso  ? C
   C7         1.0     0.027320     0.245024     0.118850    Uiso  ? C
   C7         1.0     0.027320     0.245024     0.261707    Uiso  ? C
   C7         1.0     0.027320     0.245024     0.404564    Uiso  ? C
   C7         1.0     0.027320     0.245024     0.547421    Uiso  ? C
   C7         1.0     0.027320     0.245024     0.690278    Uiso  ? C
   C7         1.0     0.027320     0.245024     0.833135    Uiso  ? C
   C7         1.0     0.027320     0.245024     0.975993    Uiso  ? C
   C7         1.0     0.027320     0.495024     0.118850    Uiso  ? C
   C7         1.0     0.027320     0.495024     0.261707    Uiso  ? C
   C7         1.0     0.027320     0.495024     0.404564    Uiso  ? C
   C7         1.0     0.027320     0.495024     0.547421    Uiso  ? C
   C7         1.0     0.027320     0.495024     0.690278    Uiso  ? C
   C7         1.0     0.027320     0.495024     0.833135    Uiso  ? C
   C7         1.0     0.027320     0.495024     0.975993    Uiso  ? C
   C7         1.0     0.027320     0.745024     0.118850    Uiso  ? C
   C7         1.0     0.027320     0.745024     0.261707    Uiso  ? C
   C7         1.0     0.027320     0.745024     0.404564    Uiso  ? C
   C7         1.0     0.027320     0.745024     0.547421    Uiso  ? C
   C7         1.0     0.027320     0.745024     0.690278    Uiso  ? C
   C7         1.0     0.027320     0.745024     0.833135    Uiso  ? C
   C7         1.0     0.027320     0.745024     0.975993    Uiso  ? C
   C7         1.0     0.027320     0.995024     0.118850    Uiso  ? C
   C7         1.0     0.027320     0.995024     0.261707    Uiso  ? C
   C7         1.0     0.027320     0.995024     0.404564    Uiso  ? C
   C7         1.0     0.027320     0.995024     0.547421    Uiso  ? C
   C7         1.0     0.027320     0.995024     0.690278    Uiso  ? C
   C7         1.0     0.027320     0.995024     0.833135    Uiso  ? C
   C7         1.0     0.027320     0.995024     0.975993    Uiso  ? C
   C7         1.0     0.360653     0.245024     0.118850    Uiso  ? C
   C7         1.0     0.360653     0.245024     0.261707    Uiso  ? C
   C7         1.0     0.360653     0.245024     0.404564    Uiso  ? C
   C7         1.0     0.360653     0.245024     0.547421    Uiso  ? C
   C7         1.0     0.360653     0.245024     0.690278    Uiso  ? C
   C7         1.0     0.360653     0.245024     0.833135    Uiso  ? C
   C7         1.0     0.360653     0.245024     0.975993    Uiso  ? C
   C7         1.0     0.360653     0.495024     0.118850    Uiso  ? C
   C7         1.0     0.360653     0.495024     0.261707    Uiso  ? C
   C7         1.0     0.360653     0.495024     0.404564    Uiso  ? C
   C7         1.0     0.360653     0.495024     0.547421    Uiso  ? C
   C7         1.0     0.360653     0.495024     0.690278    Uiso  ? C
   C7         1.0     0.360653     0.495024     0.833135    Uiso  ? C
   C7         1.0     0.360653     0.495024     0.975993    Uiso  ? C
   C7         1.0     0.360653     0.745024     0.118850    Uiso  ? C
   C7         1.0     0.360653     0.745024     0.261707    Uiso  ? C
   C7         1.0     0.360653     0.745024     0.404564    Uiso  ? C
   C7         1.0     0.360653     0.745024     0.547421    Uiso  ? C
   C7         1.0     0.360653     0.745024     0.690278    Uiso  ? C
   C7         1.0     0.360653     0.745024     0.833135    Uiso  ? C
   C7         1.0     0.360653     0.745024     0.975993    Uiso  ? C
   C7         1.0     0.360653     0.995024     0.118850    Uiso  ? C
   C7         1.0     0.360653     0.995024     0.261707    Uiso  ? C
   C7         1.0     0.360653     0.995024     0.404564    Uiso  ? C
   C7         1.0     0.360653     0.995024     0.547421    Uiso  ? C
   C7         1.0     0.360653     0.995024     0.690278    Uiso  ? C
   C7         1.0     0.360653     0.995024     0.833135    Uiso  ? C
   C7         1.0     0.360653     0.995024     0.975993    Uiso  ? C
   C7         1.0     0.693986     0.245024     0.118850    Uiso  ? C
   C7         1.0     0.693986     0.245024     0.261707    Uiso  ? C
   C7         1.0     0.693986     0.245024     0.404564    Uiso  ? C
   C7         1.0     0.693986     0.245024     0.547421    Uiso  ? C
   C7         1.0     0.693986     0.245024     0.690278    Uiso  ? C
   C7         1.0     0.693986     0.245024     0.833135    Uiso  ? C
   C7         1.0     0.693986     0.245024     0.975993    Uiso  ? C
   C7         1.0     0.693986     0.495024     0.118850    Uiso  ? C
   C7         1.0     0.693986     0.495024     0.261707    Uiso  ? C
   C7         1.0     0.693986     0.495024     0.404564    Uiso  ? C
   C7         1.0     0.693986     0.495024     0.547421    Uiso  ? C
   C7         1.0     0.693986     0.495024     0.690278    Uiso  ? C
   C7         1.0     0.693986     0.495024     0.833135    Uiso  ? C
   C7         1.0     0.693986     0.495024     0.975993    Uiso  ? C
   C7         1.0     0.693986     0.745024     0.118850    Uiso  ? C
   C7         1.0     0.693986     0.745024     0.261707    Uiso  ? C
   C7         1.0     0.693986     0.745024     0.404564    Uiso  ? C
   C7         1.0     0.693986     0.745024     0.547421    Uiso  ? C
   C7         1.0     0.693986     0.745024     0.690278    Uiso  ? C
   C7         1.0     0.693986     0.745024     0.833135    Uiso  ? C
   C7         1.0     0.693986     0.745024     0.975993    Uiso  ? C
   C7         1.0     0.693986     0.995024     0.118850    Uiso  ? C
   C7         1.0     0.693986     0.995024     0.261707    Uiso  ? C
   C7         1.0     0.693986     0.995024     0.404564    Uiso  ? C
   C7         1.0     0.693986     0.995024     0.547421    Uiso  ? C
   C7         1.0     0.693986     0.995024     0.690278    Uiso  ? C
   C7         1.0     0.693986     0.995024     0.833135    Uiso  ? C
   C7         1.0     0.693986     0.995024     0.975993    Uiso  ? C
   C8         1.0     0.024780     0.130964     0.117957    Uiso  ? C
   C8         1.0     0.024780     0.130964     0.260815    Uiso  ? C
   C8         1.0     0.024780     0.130964     0.403672    Uiso  ? C
   C8         1.0     0.024780     0.130964     0.546529    Uiso  ? C
   C8         1.0     0.024780     0.130964     0.689386    Uiso  ? C
   C8         1.0     0.024780     0.130964     0.832243    Uiso  ? C
   C8         1.0     0.024780     0.130964     0.975100    Uiso  ? C
   C8         1.0     0.024780     0.380964     0.117957    Uiso  ? C
   C8         1.0     0.024780     0.380964     0.260815    Uiso  ? C
   C8         1.0     0.024780     0.380964     0.403672    Uiso  ? C
   C8         1.0     0.024780     0.380964     0.546529    Uiso  ? C
   C8         1.0     0.024780     0.380964     0.689386    Uiso  ? C
   C8         1.0     0.024780     0.380964     0.832243    Uiso  ? C
   C8         1.0     0.024780     0.380964     0.975100    Uiso  ? C
   C8         1.0     0.024780     0.630964     0.117957    Uiso  ? C
   C8         1.0     0.024780     0.630964     0.260815    Uiso  ? C
   C8         1.0     0.024780     0.630964     0.403672    Uiso  ? C
   C8         1.0     0.024780     0.630964     0.546529    Uiso  ? C
   C8         1.0     0.024780     0.630964     0.689386    Uiso  ? C
   C8         1.0     0.024780     0.630964     0.832243    Uiso  ? C
   C8         1.0     0.024780     0.630964     0.975100    Uiso  ? C
   C8         1.0     0.024780     0.880964     0.117957    Uiso  ? C
   C8         1.0     0.024780     0.880964     0.260815    Uiso  ? C
   C8         1.0     0.024780     0.880964     0.403672    Uiso  ? C
   C8         1.0     0.024780     0.880964     0.546529    Uiso  ? C
   C8         1.0     0.024780     0.880964     0.689386    Uiso  ? C
   C8         1.0     0.024780     0.880964     0.832243    Uiso  ? C
   C8         1.0     0.024780     0.880964     0.975100    Uiso  ? C
   C8         1.0     0.358114     0.130964     0.117957    Uiso  ? C
   C8         1.0     0.358114     0.130964     0.260815    Uiso  ? C
   C8         1.0     0.358114     0.130964     0.403672    Uiso  ? C
   C8         1.0     0.358114     0.130964     0.546529    Uiso  ? C
   C8         1.0     0.358114     0.130964     0.689386    Uiso  ? C
   C8         1.0     0.358114     0.130964     0.832243    Uiso  ? C
   C8         1.0     0.358114     0.130964     0.975100    Uiso  ? C
   C8         1.0     0.358114     0.380964     0.117957    Uiso  ? C
   C8         1.0     0.358114     0.380964     0.260815    Uiso  ? C
   C8         1.0     0.358114     0.380964     0.403672    Uiso  ? C
   C8         1.0     0.358114     0.380964     0.546529    Uiso  ? C
   C8         1.0     0.358114     0.380964     0.689386    Uiso  ? C
   C8         1.0     0.358114     0.380964     0.832243    Uiso  ? C
   C8         1.0     0.358114     0.380964     0.975100    Uiso  ? C
   C8         1.0     0.358114     0.630964     0.117957    Uiso  ? C
   C8         1.0     0.358114     0.630964     0.260815    Uiso  ? C
   C8         1.0     0.358114     0.630964     0.403672    Uiso  ? C
   C8         1.0     0.358114     0.630964     0.546529    Uiso  ? C
   C8         1.0     0.358114     0.630964     0.689386    Uiso  ? C
   C8         1.0     0.358114     0.630964     0.832243    Uiso  ? C
   C8         1.0     0.358114     0.630964     0.975100    Uiso  ? C
   C8         1.0     0.358114     0.880964     0.117957    Uiso  ? C
   C8         1.0     0.358114     0.880964     0.260815    Uiso  ? C
   C8         1.0     0.358114     0.880964     0.403672    Uiso  ? C
   C8         1.0     0.358114     0.880964     0.546529    Uiso  ? C
   C8         1.0     0.358114     0.880964     0.689386    Uiso  ? C
   C8         1.0     0.358114     0.880964     0.832243    Uiso  ? C
   C8         1.0     0.358114     0.880964     0.975100    Uiso  ? C
   C8         1.0     0.691447     0.130964     0.117957    Uiso  ? C
   C8         1.0     0.691447     0.130964     0.260815    Uiso  ? C
   C8         1.0     0.691447     0.130964     0.403672    Uiso  ? C
   C8         1.0     0.691447     0.130964     0.546529    Uiso  ? C
   C8         1.0     0.691447     0.130964     0.689386    Uiso  ? C
   C8         1.0     0.691447     0.130964     0.832243    Uiso  ? C
   C8         1.0     0.691447     0.130964     0.975100    Uiso  ? C
   C8         1.0     0.691447     0.380964     0.117957    Uiso  ? C
   C8         1.0     0.691447     0.380964     0.260815    Uiso  ? C
   C8         1.0     0.691447     0.380964     0.403672    Uiso  ? C
   C8         1.0     0.691447     0.380964     0.546529    Uiso  ? C
   C8         1.0     0.691447     0.380964     0.689386    Uiso  ? C
   C8         1.0     0.691447     0.380964     0.832243    Uiso  ? C
   C8         1.0     0.691447     0.380964     0.975100    Uiso  ? C
   C8         1.0     0.691447     0.630964     0.117957    Uiso  ? C
   C8         1.0     0.691447     0.630964     0.260815    Uiso  ? C
   C8         1.0     0.691447     0.630964     0.403672    Uiso  ? C
   C8         1.0     0.691447     0.630964     0.546529    Uiso  ? C
   C8         1.0     0.691447     0.630964     0.689386    Uiso  ? C
   C8         1.0     0.691447     0.630964     0.832243    Uiso  ? C
   C8         1.0     0.691447     0.630964     0.975100    Uiso  ? C
   C8         1.0     0.691447     0.880964     0.117957    Uiso  ? C
   C8         1.0     0.691447     0.880964     0.260815    Uiso  ? C
   C8         1.0     0.691447     0.880964     0.403672    Uiso  ? C
   C8         1.0     0.691447     0.880964     0.546529    Uiso  ? C
   C8         1.0     0.691447     0.880964     0.689386    Uiso  ? C
   C8         1.0     0.691447     0.880964     0.832243    Uiso  ? C
   C8         1.0     0.691447     0.880964     0.975100    Uiso  ? C
   C9         1.0     0.205007     0.245231     0.115500    Uiso  ? C
   C9         1.0     0.205007     0.245231     0.258357    Uiso  ? C
   C9         1.0     0.205007     0.245231     0.401215    Uiso  ? C
   C9         1.0     0.205007     0.245231     0.544072    Uiso  ? C
   C9         1.0     0.205007     0.245231     0.686929    Uiso  ? C
   C9         1.0     0.205007     0.245231     0.829786    Uiso  ? C
   C9         1.0     0.205007     0.245231     0.972643    Uiso  ? C
   C9         1.0     0.205007     0.495231     0.115500    Uiso  ? C
   C9         1.0     0.205007     0.495231     0.258357    Uiso  ? C
   C9         1.0     0.205007     0.495231     0.401215    Uiso  ? C
   C9         1.0     0.205007     0.495231     0.544072    Uiso  ? C
   C9         1.0     0.205007     0.495231     0.686929    Uiso  ? C
   C9         1.0     0.205007     0.495231     0.829786    Uiso  ? C
   C9         1.0     0.205007     0.495231     0.972643    Uiso  ? C
   C9         1.0     0.205007     0.745231     0.115500    Uiso  ? C
   C9         1.0     0.205007     0.745231     0.258357    Uiso  ? C
   C9         1.0     0.205007     0.745231     0.401215    Uiso  ? C
   C9         1.0     0.205007     0.745231     0.544072    Uiso  ? C
   C9         1.0     0.205007     0.745231     0.686929    Uiso  ? C
   C9         1.0     0.205007     0.745231     0.829786    Uiso  ? C
   C9         1.0     0.205007     0.745231     0.972643    Uiso  ? C
   C9         1.0     0.205007     0.995231     0.115500    Uiso  ? C
   C9         1.0     0.205007     0.995231     0.258357    Uiso  ? C
   C9         1.0     0.205007     0.995231     0.401215    Uiso  ? C
   C9         1.0     0.205007     0.995231     0.544072    Uiso  ? C
   C9         1.0     0.205007     0.995231     0.686929    Uiso  ? C
   C9         1.0     0.205007     0.995231     0.829786    Uiso  ? C
   C9         1.0     0.205007     0.995231     0.972643    Uiso  ? C
   C9         1.0     0.538340     0.245231     0.115500    Uiso  ? C
   C9         1.0     0.538340     0.245231     0.258357    Uiso  ? C
   C9         1.0     0.538340     0.245231     0.401215    Uiso  ? C
   C9         1.0     0.538340     0.245231     0.544072    Uiso  ? C
   C9         1.0     0.538340     0.245231     0.686929    Uiso  ? C
   C9         1.0     0.538340     0.245231     0.829786    Uiso  ? C
   C9         1.0     0.538340     0.245231     0.972643    Uiso  ? C
   C9         1.0     0.538340     0.495231     0.115500    Uiso  ? C
   C9         1.0     0.538340     0.495231     0.258357    Uiso  ? C
   C9         1.0     0.538340     0.495231     0.401215    Uiso  ? C
   C9         1.0     0.538340     0.495231     0.544072    Uiso  ? C
   C9         1.0     0.538340     0.495231     0.686929    Uiso  ? C
   C9         1.0     0.538340     0.495231     0.829786    Uiso  ? C
   C9         1.0     0.538340     0.495231     0.972643    Uiso  ? C
   C9         1.0     0.538340     0.745231     0.115500    Uiso  ? C
   C9         1.0     0.538340     0.745231     0.258357    Uiso  ? C
   C9         1.0     0.538340     0.745231     0.401215    Uiso  ? C
   C9         1.0     0.538340     0.745231     0.544072    Uiso  ? C
   C9         1.0     0.538340     0.745231     0.686929    Uiso  ? C
   C9         1.0     0.538340     0.745231     0.829786    Uiso  ? C
   C9         1.0     0.538340     0.745231     0.972643    Uiso  ? C
   C9         1.0     0.538340     0.995231     0.115500    Uiso  ? C
   C9         1.0     0.538340     0.995231     0.258357    Uiso  ? C
   C9         1.0     0.538340     0.995231     0.401215    Uiso  ? C
   C9         1.0     0.538340     0.995231     0.544072    Uiso  ? C
   C9         1.0     0.538340     0.995231     0.686929    Uiso  ? C
   C9         1.0     0.538340     0.995231     0.829786    Uiso  ? C
   C9         1.0     0.538340     0.995231     0.972643    Uiso  ? C
   C9         1.0     0.871674     0.245231     0.115500    Uiso  ? C
   C9         1.0     0.871674     0.245231     0.258357    Uiso  ? C
   C9         1.0     0.871674     0.245231     0.401215    Uiso  ? C
   C9         1.0     0.871674     0.245231     0.544072    Uiso  ? C
   C9         1.0     0.871674     0.245231     0.686929    Uiso  ? C
   C9         1.0     0.871674     0.245231     0.829786    Uiso  ? C
   C9         1.0     0.871674     0.245231     0.972643    Uiso  ? C
   C9         1.0     0.871674     0.495231     0.115500    Uiso  ? C
   C9         1.0     0.871674     0.495231     0.258357    Uiso  ? C
   C9         1.0     0.871674     0.495231     0.401215    Uiso  ? C
   C9         1.0     0.871674     0.495231     0.544072    Uiso  ? C
   C9         1.0     0.871674     0.495231     0.686929    Uiso  ? C
   C9         1.0     0.871674     0.495231     0.829786    Uiso  ? C
   C9         1.0     0.871674     0.495231     0.972643    Uiso  ? C
   C9         1.0     0.871674     0.745231     0.115500    Uiso  ? C
   C9         1.0     0.871674     0.745231     0.258357    Uiso  ? C
   C9         1.0     0.871674     0.745231     0.401215    Uiso  ? C
   C9         1.0     0.871674     0.745231     0.544072    Uiso  ? C
   C9         1.0     0.871674     0.745231     0.686929    Uiso  ? C
   C9         1.0     0.871674     0.745231     0.829786    Uiso  ? C
   C9         1.0     0.871674     0.745231     0.972643    Uiso  ? C
   C9         1.0     0.871674     0.995231     0.115500    Uiso  ? C
   C9         1.0     0.871674     0.995231     0.258357    Uiso  ? C
   C9         1.0     0.871674     0.995231     0.401215    Uiso  ? C
   C9         1.0     0.871674     0.995231     0.544072    Uiso  ? C
   C9         1.0     0.871674     0.995231     0.686929    Uiso  ? C
   C9         1.0     0.871674     0.995231     0.829786    Uiso  ? C
   C9         1.0     0.871674     0.995231     0.972643    Uiso  ? C
   C10        1.0     0.012734     0.224873     0.115057    Uiso  ? C
   C10        1.0     0.012734     0.224873     0.257914    Uiso  ? C
   C10        1.0     0.012734     0.224873     0.400771    Uiso  ? C
   C10        1.0     0.012734     0.224873     0.543629    Uiso  ? C
   C10        1.0     0.012734     0.224873     0.686486    Uiso  ? C
   C10        1.0     0.012734     0.224873     0.829343    Uiso  ? C
   C10        1.0     0.012734     0.224873     0.972200    Uiso  ? C
   C10        1.0     0.012734     0.474873     0.115057    Uiso  ? C
   C10        1.0     0.012734     0.474873     0.257914    Uiso  ? C
   C10        1.0     0.012734     0.474873     0.400771    Uiso  ? C
   C10        1.0     0.012734     0.474873     0.543629    Uiso  ? C
   C10        1.0     0.012734     0.474873     0.686486    Uiso  ? C
   C10        1.0     0.012734     0.474873     0.829343    Uiso  ? C
   C10        1.0     0.012734     0.474873     0.972200    Uiso  ? C
   C10        1.0     0.012734     0.724873     0.115057    Uiso  ? C
   C10        1.0     0.012734     0.724873     0.257914    Uiso  ? C
   C10        1.0     0.012734     0.724873     0.400771    Uiso  ? C
   C10        1.0     0.012734     0.724873     0.543629    Uiso  ? C
   C10        1.0     0.012734     0.724873     0.686486    Uiso  ? C
   C10        1.0     0.012734     0.724873     0.829343    Uiso  ? C
   C10        1.0     0.012734     0.724873     0.972200    Uiso  ? C
   C10        1.0     0.012734     0.974873     0.115057    Uiso  ? C
   C10        1.0     0.012734     0.974873     0.257914    Uiso  ? C
   C10        1.0     0.012734     0.974873     0.400771    Uiso  ? C
   C10        1.0     0.012734     0.974873     0.543629    Uiso  ? C
   C10        1.0     0.012734     0.974873     0.686486    Uiso  ? C
   C10        1.0     0.012734     0.974873     0.829343    Uiso  ? C
   C10        1.0     0.012734     0.974873     0.972200    Uiso  ? C
   C10        1.0     0.346068     0.224873     0.115057    Uiso  ? C
   C10        1.0     0.346068     0.224873     0.257914    Uiso  ? C
   C10        1.0     0.346068     0.224873     0.400771    Uiso  ? C
   C10        1.0     0.346068     0.224873     0.543629    Uiso  ? C
   C10        1.0     0.346068     0.224873     0.686486    Uiso  ? C
   C10        1.0     0.346068     0.224873     0.829343    Uiso  ? C
   C10        1.0     0.346068     0.224873     0.972200    Uiso  ? C
   C10        1.0     0.346068     0.474873     0.115057    Uiso  ? C
   C10        1.0     0.346068     0.474873     0.257914    Uiso  ? C
   C10        1.0     0.346068     0.474873     0.400771    Uiso  ? C
   C10        1.0     0.346068     0.474873     0.543629    Uiso  ? C
   C10        1.0     0.346068     0.474873     0.686486    Uiso  ? C
   C10        1.0     0.346068     0.474873     0.829343    Uiso  ? C
   C10        1.0     0.346068     0.474873     0.972200    Uiso  ? C
   C10        1.0     0.346068     0.724873     0.115057    Uiso  ? C
   C10        1.0     0.346068     0.724873     0.257914    Uiso  ? C
   C10        1.0     0.346068     0.724873     0.400771    Uiso  ? C
   C10        1.0     0.346068     0.724873     0.543629    Uiso  ? C
   C10        1.0     0.346068     0.724873     0.686486    Uiso  ? C
   C10        1.0     0.346068     0.724873     0.829343    Uiso  ? C
   C10        1.0     0.346068     0.724873     0.972200    Uiso  ? C
   C10        1.0     0.346068     0.974873     0.115057    Uiso  ? C
   C10        1.0     0.346068     0.974873     0.257914    Uiso  ? C
   C10        1.0     0.346068     0.974873     0.400771    Uiso  ? C
   C10        1.0     0.346068     0.974873     0.543629    Uiso  ? C
   C10        1.0     0.346068     0.974873     0.686486    Uiso  ? C
   C10        1.0     0.346068     0.974873     0.829343    Uiso  ? C
   C10        1.0     0.346068     0.974873     0.972200    Uiso  ? C
   C10        1.0     0.679401     0.224873     0.115057    Uiso  ? C
   C10        1.0     0.679401     0.224873     0.257914    Uiso  ? C
   C10        1.0     0.679401     0.224873     0.400771    Uiso  ? C
   C10        1.0     0.679401     0.224873     0.543629    Uiso  ? C
   C10        1.0     0.679401     0.224873     0.686486    Uiso  ? C
   C10        1.0     0.679401     0.224873     0.829343    Uiso  ? C
   C10        1.0     0.679401     0.224873     0.972200    Uiso  ? C
   C10        1.0     0.679401     0.474873     0.115057    Uiso  ? C
   C10        1.0     0.679401     0.474873     0.257914    Uiso  ? C
   C10        1.0     0.679401     0.474873     0.400771    Uiso  ? C
   C10        1.0     0.679401     0.474873     0.543629    Uiso  ? C
   C10        1.0     0.679401     0.474873     0.686486    Uiso  ? C
   C10        1.0     0.679401     0.474873     0.829343    Uiso  ? C
   C10        1.0     0.679401     0.474873     0.972200    Uiso  ? C
   C10        1.0     0.679401     0.724873     0.115057    Uiso  ? C
   C10        1.0     0.679401     0.724873     0.257914    Uiso  ? C
   C10        1.0     0.679401     0.724873     0.400771    Uiso  ? C
   C10        1.0     0.679401     0.724873     0.543629    Uiso  ? C
   C10        1.0     0.679401     0.724873     0.686486    Uiso  ? C
   C10        1.0     0.679401     0.724873     0.829343    Uiso  ? C
   C10        1.0     0.679401     0.724873     0.972200    Uiso  ? C
   C10        1.0     0.679401     0.974873     0.115057    Uiso  ? C
   C10        1.0     0.679401     0.974873     0.257914    Uiso  ? C
   C10        1.0     0.679401     0.974873     0.400771    Uiso  ? C
   C10        1.0     0.679401     0.974873     0.543629    Uiso  ? C
   C10        1.0     0.679401     0.974873     0.686486    Uiso  ? C
   C10        1.0     0.679401     0.974873     0.829343    Uiso  ? C
   C10        1.0     0.679401     0.974873     0.972200    Uiso  ? C
   C11        1.0     0.203895     0.128861     0.114703    Uiso  ? C
   C11        1.0     0.203895     0.128861     0.257560    Uiso  ? C
   C11        1.0     0.203895     0.128861     0.400417    Uiso  ? C
   C11        1.0     0.203895     0.128861     0.543274    Uiso  ? C
   C11        1.0     0.203895     0.128861     0.686131    Uiso  ? C
   C11        1.0     0.203895     0.128861     0.828988    Uiso  ? C
   C11        1.0     0.203895     0.128861     0.971845    Uiso  ? C
   C11        1.0     0.203895     0.378861     0.114703    Uiso  ? C
   C11        1.0     0.203895     0.378861     0.257560    Uiso  ? C
   C11        1.0     0.203895     0.378861     0.400417    Uiso  ? C
   C11        1.0     0.203895     0.378861     0.543274    Uiso  ? C
   C11        1.0     0.203895     0.378861     0.686131    Uiso  ? C
   C11        1.0     0.203895     0.378861     0.828988    Uiso  ? C
   C11        1.0     0.203895     0.378861     0.971845    Uiso  ? C
   C11        1.0     0.203895     0.628861     0.114703    Uiso  ? C
   C11        1.0     0.203895     0.628861     0.257560    Uiso  ? C
   C11        1.0     0.203895     0.628861     0.400417    Uiso  ? C
   C11        1.0     0.203895     0.628861     0.543274    Uiso  ? C
   C11        1.0     0.203895     0.628861     0.686131    Uiso  ? C
   C11        1.0     0.203895     0.628861     0.828988    Uiso  ? C
   C11        1.0     0.203895     0.628861     0.971845    Uiso  ? C
   C11        1.0     0.203895     0.878861     0.114703    Uiso  ? C
   C11        1.0     0.203895     0.878861     0.257560    Uiso  ? C
   C11        1.0     0.203895     0.878861     0.400417    Uiso  ? C
   C11        1.0     0.203895     0.878861     0.543274    Uiso  ? C
   C11        1.0     0.203895     0.878861     0.686131    Uiso  ? C
   C11        1.0     0.203895     0.878861     0.828988    Uiso  ? C
   C11        1.0     0.203895     0.878861     0.971845    Uiso  ? C
   C11        1.0     0.537228     0.128861     0.114703    Uiso  ? C
   C11        1.0     0.537228     0.128861     0.257560    Uiso  ? C
   C11        1.0     0.537228     0.128861     0.400417    Uiso  ? C
   C11        1.0     0.537228     0.128861     0.543274    Uiso  ? C
   C11        1.0     0.537228     0.128861     0.686131    Uiso  ? C
   C11        1.0     0.537228     0.128861     0.828988    Uiso  ? C
   C11        1.0     0.537228     0.128861     0.971845    Uiso  ? C
   C11        1.0     0.537228     0.378861     0.114703    Uiso  ? C
   C11        1.0     0.537228     0.378861     0.257560    Uiso  ? C
   C11        1.0     0.537228     0.378861     0.400417    Uiso  ? C
   C11        1.0     0.537228     0.378861     0.543274    Uiso  ? C
   C11        1.0     0.537228     0.378861     0.686131    Uiso  ? C
   C11        1.0     0.537228     0.378861     0.828988    Uiso  ? C
   C11        1.0     0.537228     0.378861     0.971845    Uiso  ? C
   C11        1.0     0.537228     0.628861     0.114703    Uiso  ? C
   C11        1.0     0.537228     0.628861     0.257560    Uiso  ? C
   C11        1.0     0.537228     0.628861     0.400417    Uiso  ? C
   C11        1.0     0.537228     0.628861     0.543274    Uiso  ? C
   C11        1.0     0.537228     0.628861     0.686131    Uiso  ? C
   C11        1.0     0.537228     0.628861     0.828988    Uiso  ? C
   C11        1.0     0.537228     0.628861     0.971845    Uiso  ? C
   C11        1.0     0.537228     0.878861     0.114703    Uiso  ? C
   C11        1.0     0.537228     0.878861     0.257560    Uiso  ? C
   C11        1.0     0.537228     0.878861     0.400417    Uiso  ? C
   C11        1.0     0.537228     0.878861     0.543274    Uiso  ? C
   C11        1.0     0.537228     0.878861     0.686131    Uiso  ? C
   C11        1.0     0.537228     0.878861     0.828988    Uiso  ? C
   C11        1.0     0.537228     0.878861     0.971845    Uiso  ? C
   C11        1.0     0.870562     0.128861     0.114703    Uiso  ? C
   C11        1.0     0.870562     0.128861     0.257560    Uiso  ? C
   C11        1.0     0.870562     0.128861     0.400417    Uiso  ? C
   C11        1.0     0.870562     0.128861     0.543274    Uiso  ? C
   C11        1.0     0.870562     0.128861     0.686131    Uiso  ? C
   C11        1.0     0.870562     0.128861     0.828988    Uiso  ? C
   C11        1.0     0.870562     0.128861     0.971845    Uiso  ? C
   C11        1.0     0.870562     0.378861     0.114703    Uiso  ? C
   C11        1.0     0.870562     0.378861     0.257560    Uiso  ? C
   C11        1.0     0.870562     0.378861     0.400417    Uiso  ? C
   C11        1.0     0.870562     0.378861     0.543274    Uiso  ? C
   C11        1.0     0.870562     0.378861     0.686131    Uiso  ? C
   C11        1.0     0.870562     0.378861     0.828988    Uiso  ? C
   C11        1.0     0.870562     0.378861     0.971845    Uiso  ? C
   C11        1.0     0.870562     0.628861     0.114703    Uiso  ? C
   C11        1.0     0.870562     0.628861     0.257560    Uiso  ? C
   C11        1.0     0.870562     0.628861     0.400417    Uiso  ? C
   C11        1.0     0.870562     0.628861     0.543274    Uiso  ? C
   C11        1.0     0.870562     0.628861     0.686131    Uiso  ? C
   C11        1.0     0.870562     0.628861     0.828988    Uiso  ? C
   C11        1.0     0.870562     0.628861     0.971845    Uiso  ? C
   C11        1.0     0.870562     0.878861     0.114703    Uiso  ? C
   C11        1.0     0.870562     0.878861     0.257560    Uiso  ? C
   C11        1.0     0.870562     0.878861     0.400417    Uiso  ? C
   C11        1.0     0.870562     0.878861     0.543274    Uiso  ? C
   C11        1.0     0.870562     0.878861     0.686131    Uiso  ? C
   C11        1.0     0.870562     0.878861     0.828988    Uiso  ? C
   C11        1.0     0.870562     0.878861     0.971845    Uiso  ? C
   C12        1.0     0.010196     0.151155     0.114204    Uiso  ? C
   C12        1.0     0.010196     0.151155     0.257061    Uiso  ? C
   C12        1.0     0.010196     0.151155     0.399918    Uiso  ? C
   C12        1.0     0.010196     0.151155     0.542775    Uiso  ? C
   C12        1.0     0.010196     0.151155     0.685632    Uiso  ? C
   C12        1.0     0.010196     0.151155     0.828489    Uiso  ? C
   C12        1.0     0.010196     0.151155     0.971346    Uiso  ? C
   C12        1.0     0.010196     0.401155     0.114204    Uiso  ? C
   C12        1.0     0.010196     0.401155     0.257061    Uiso  ? C
   C12        1.0     0.010196     0.401155     0.399918    Uiso  ? C
   C12        1.0     0.010196     0.401155     0.542775    Uiso  ? C
   C12        1.0     0.010196     0.401155     0.685632    Uiso  ? C
   C12        1.0     0.010196     0.401155     0.828489    Uiso  ? C
   C12        1.0     0.010196     0.401155     0.971346    Uiso  ? C
   C12        1.0     0.010196     0.651155     0.114204    Uiso  ? C
   C12        1.0     0.010196     0.651155     0.257061    Uiso  ? C
   C12        1.0     0.010196     0.651155     0.399918    Uiso  ? C
   C12        1.0     0.010196     0.651155     0.542775    Uiso  ? C
   C12        1.0     0.010196     0.651155     0.685632    Uiso  ? C
   C12        1.0     0.010196     0.651155     0.828489    Uiso  ? C
   C12        1.0     0.010196     0.651155     0.971346    Uiso  ? C
   C12        1.0     0.010196     0.901155     0.114204    Uiso  ? C
   C12        1.0     0.010196     0.901155     0.257061    Uiso  ? C
   C12        1.0     0.010196     0.901155     0.399918    Uiso  ? C
   C12        1.0     0.010196     0.901155     0.542775    Uiso  ? C
   C12        1.0     0.010196     0.901155     0.685632    Uiso  ? C
   C12        1.0     0.010196     0.901155     0.828489    Uiso  ? C
   C12        1.0     0.010196     0.901155     0.971346    Uiso  ? C
   C12        1.0     0.343530     0.151155     0.114204    Uiso  ? C
   C12        1.0     0.343530     0.151155     0.257061    Uiso  ? C
   C12        1.0     0.343530     0.151155     0.399918    Uiso  ? C
   C12        1.0     0.343530     0.151155     0.542775    Uiso  ? C
   C12        1.0     0.343530     0.151155     0.685632    Uiso  ? C
   C12        1.0     0.343530     0.151155     0.828489    Uiso  ? C
   C12        1.0     0.343530     0.151155     0.971346    Uiso  ? C
   C12        1.0     0.343530     0.401155     0.114204    Uiso  ? C
   C12        1.0     0.343530     0.401155     0.257061    Uiso  ? C
   C12        1.0     0.343530     0.401155     0.399918    Uiso  ? C
   C12        1.0     0.343530     0.401155     0.542775    Uiso  ? C
   C12        1.0     0.343530     0.401155     0.685632    Uiso  ? C
   C12        1.0     0.343530     0.401155     0.828489    Uiso  ? C
   C12        1.0     0.343530     0.401155     0.971346    Uiso  ? C
   C12        1.0     0.343530     0.651155     0.114204    Uiso  ? C
   C12        1.0     0.343530     0.651155     0.257061    Uiso  ? C
   C12        1.0     0.343530     0.651155     0.399918    Uiso  ? C
   C12        1.0     0.343530     0.651155     0.542775    Uiso  ? C
   C12        1.0     0.343530     0.651155     0.685632    Uiso  ? C
   C12        1.0     0.343530     0.651155     0.828489    Uiso  ? C
   C12        1.0     0.343530     0.651155     0.971346    Uiso  ? C
   C12        1.0     0.343530     0.901155     0.114204    Uiso  ? C
   C12        1.0     0.343530     0.901155     0.257061    Uiso  ? C
   C12        1.0     0.343530     0.901155     0.399918    Uiso  ? C
   C12        1.0     0.343530     0.901155     0.542775    Uiso  ? C
   C12        1.0     0.343530     0.901155     0.685632    Uiso  ? C
   C12        1.0     0.343530     0.901155     0.828489    Uiso  ? C
   C12        1.0     0.343530     0.901155     0.971346    Uiso  ? C
   C12        1.0     0.676863     0.151155     0.114204    Uiso  ? C
   C12        1.0     0.676863     0.151155     0.257061    Uiso  ? C
   C12        1.0     0.676863     0.151155     0.399918    Uiso  ? C
   C12        1.0     0.676863     0.151155     0.542775    Uiso  ? C
   C12        1.0     0.676863     0.151155     0.685632    Uiso  ? C
   C12        1.0     0.676863     0.151155     0.828489    Uiso  ? C
   C12        1.0     0.676863     0.151155     0.971346    Uiso  ? C
   C12        1.0     0.676863     0.401155     0.114204    Uiso  ? C
   C12        1.0     0.676863     0.401155     0.257061    Uiso  ? C
   C12        1.0     0.676863     0.401155     0.399918    Uiso  ? C
   C12        1.0     0.676863     0.401155     0.542775    Uiso  ? C
   C12        1.0     0.676863     0.401155     0.685632    Uiso  ? C
   C12        1.0     0.676863     0.401155     0.828489    Uiso  ? C
   C12        1.0     0.676863     0.401155     0.971346    Uiso  ? C
   C12        1.0     0.676863     0.651155     0.114204    Uiso  ? C
   C12        1.0     0.676863     0.651155     0.257061    Uiso  ? C
   C12        1.0     0.676863     0.651155     0.399918    Uiso  ? C
   C12        1.0     0.676863     0.651155     0.542775    Uiso  ? C
   C12        1.0     0.676863     0.651155     0.685632    Uiso  ? C
   C12        1.0     0.676863     0.651155     0.828489    Uiso  ? C
   C12        1.0     0.676863     0.651155     0.971346    Uiso  ? C
   C12        1.0     0.676863     0.901155     0.114204    Uiso  ? C
   C12        1.0     0.676863     0.901155     0.257061    Uiso  ? C
   C12        1.0     0.676863     0.901155     0.399918    Uiso  ? C
   C12        1.0     0.676863     0.901155     0.542775    Uiso  ? C
   C12        1.0     0.676863     0.901155     0.685632    Uiso  ? C
   C12        1.0     0.676863     0.901155     0.828489    Uiso  ? C
   C12        1.0     0.676863     0.901155     0.971346    Uiso  ? C
   C13        1.0     0.221031     0.223727     0.112055    Uiso  ? C
   C13        1.0     0.221031     0.223727     0.254912    Uiso  ? C
   C13        1.0     0.221031     0.223727     0.397770    Uiso  ? C
   C13        1.0     0.221031     0.223727     0.540627    Uiso  ? C
   C13        1.0     0.221031     0.223727     0.683484    Uiso  ? C
   C13        1.0     0.221031     0.223727     0.826341    Uiso  ? C
   C13        1.0     0.221031     0.223727     0.969198    Uiso  ? C
   C13        1.0     0.221031     0.473727     0.112055    Uiso  ? C
   C13        1.0     0.221031     0.473727     0.254912    Uiso  ? C
   C13        1.0     0.221031     0.473727     0.397770    Uiso  ? C
   C13        1.0     0.221031     0.473727     0.540627    Uiso  ? C
   C13        1.0     0.221031     0.473727     0.683484    Uiso  ? C
   C13        1.0     0.221031     0.473727     0.826341    Uiso  ? C
   C13        1.0     0.221031     0.473727     0.969198    Uiso  ? C
   C13        1.0     0.221031     0.723727     0.112055    Uiso  ? C
   C13        1.0     0.221031     0.723727     0.254912    Uiso  ? C
   C13        1.0     0.221031     0.723727     0.397770    Uiso  ? C
   C13        1.0     0.221031     0.723727     0.540627    Uiso  ? C
   C13        1.0     0.221031     0.723727     0.683484    Uiso  ? C
   C13        1.0     0.221031     0.723727     0.826341    Uiso  ? C
   C13        1.0     0.221031     0.723727     0.969198    Uiso  ? C
   C13        1.0     0.221031     0.973727     0.112055    Uiso  ? C
   C13        1.0     0.221031     0.973727     0.254912    Uiso  ? C
   C13        1.0     0.221031     0.973727     0.397770    Uiso  ? C
   C13        1.0     0.221031     0.973727     0.540627    Uiso  ? C
   C13        1.0     0.221031     0.973727     0.683484    Uiso  ? C
   C13        1.0     0.221031     0.973727     0.826341    Uiso  ? C
   C13        1.0     0.221031     0.973727     0.969198    Uiso  ? C
   C13        1.0     0.554364     0.223727     0.112055    Uiso  ? C
   C13        1.0     0.554364     0.223727     0.254912    Uiso  ? C
   C13        1.0     0.554364     0.223727     0.397770    Uiso  ? C
   C13        1.0     0.554364     0.223727     0.540627    Uiso  ? C
   C13        1.0     0.554364     0.223727     0.683484    Uiso  ? C
   C13        1.0     0.554364     0.223727     0.826341    Uiso  ? C
   C13        1.0     0.554364     0.223727     0.969198    Uiso  ? C
   C13        1.0     0.554364     0.473727     0.112055    Uiso  ? C
   C13        1.0     0.554364     0.473727     0.254912    Uiso  ? C
   C13        1.0     0.554364     0.473727     0.397770    Uiso  ? C
   C13        1.0     0.554364     0.473727     0.540627    Uiso  ? C
   C13        1.0     0.554364     0.473727     0.683484    Uiso  ? C
   C13        1.0     0.554364     0.473727     0.826341    Uiso  ? C
   C13        1.0     0.554364     0.473727     0.969198    Uiso  ? C
   C13        1.0     0.554364     0.723727     0.112055    Uiso  ? C
   C13        1.0     0.554364     0.723727     0.254912    Uiso  ? C
   C13        1.0     0.554364     0.723727     0.397770    Uiso  ? C
   C13        1.0     0.554364     0.723727     0.540627    Uiso  ? C
   C13        1.0     0.554364     0.723727     0.683484    Uiso  ? C
   C13        1.0     0.554364     0.723727     0.826341    Uiso  ? C
   C13        1.0     0.554364     0.723727     0.969198    Uiso  ? C
   C13        1.0     0.554364     0.973727     0.112055    Uiso  ? C
   C13        1.0     0.554364     0.973727     0.254912    Uiso  ? C
   C13        1.0     0.554364     0.973727     0.397770    Uiso  ? C
   C13        1.0     0.554364     0.973727     0.540627    Uiso  ? C
   C13        1.0     0.554364     0.973727     0.683484    Uiso  ? C
   C13        1.0     0.554364     0.973727     0.826341    Uiso  ? C
   C13        1.0     0.554364     0.973727     0.969198    Uiso  ? C
   C13        1.0     0.887697     0.223727     0.112055    Uiso  ? C
   C13        1.0     0.887697     0.223727     0.254912    Uiso  ? C
   C13        1.0     0.887697     0.223727     0.397770    Uiso  ? C
   C13        1.0     0.887697     0.223727     0.540627    Uiso  ? C
   C13        1.0     0.887697     0.223727     0.683484    Uiso  ? C
   C13        1.0     0.887697     0.223727     0.826341    Uiso  ? C
   C13        1.0     0.887697     0.223727     0.969198    Uiso  ? C
   C13        1.0     0.887697     0.473727     0.112055    Uiso  ? C
   C13        1.0     0.887697     0.473727     0.254912    Uiso  ? C
   C13        1.0     0.887697     0.473727     0.397770    Uiso  ? C
   C13        1.0     0.887697     0.473727     0.540627    Uiso  ? C
   C13        1.0     0.887697     0.473727     0.683484    Uiso  ? C
   C13        1.0     0.887697     0.473727     0.826341    Uiso  ? C
   C13        1.0     0.887697     0.473727     0.969198    Uiso  ? C
   C13        1.0     0.887697     0.723727     0.112055    Uiso  ? C
   C13        1.0     0.887697     0.723727     0.254912    Uiso  ? C
   C13        1.0     0.887697     0.723727     0.397770    Uiso  ? C
   C13        1.0     0.887697     0.723727     0.540627    Uiso  ? C
   C13        1.0     0.887697     0.723727     0.683484    Uiso  ? C
   C13        1.0     0.887697     0.723727     0.826341    Uiso  ? C
   C13        1.0     0.887697     0.723727     0.969198    Uiso  ? C
   C13        1.0     0.887697     0.973727     0.112055    Uiso  ? C
   C13        1.0     0.887697     0.973727     0.254912    Uiso  ? C
   C13        1.0     0.887697     0.973727     0.397770    Uiso  ? C
   C13        1.0     0.887697     0.973727     0.540627    Uiso  ? C
   C13        1.0     0.887697     0.973727     0.683484    Uiso  ? C
   C13        1.0     0.887697     0.973727     0.826341    Uiso  ? C
   C13        1.0     0.887697     0.973727     0.969198    Uiso  ? C
   C14        1.0     0.219992     0.150229     0.110902    Uiso  ? C
   C14        1.0     0.219992     0.150229     0.253759    Uiso  ? C
   C14        1.0     0.219992     0.150229     0.396616    Uiso  ? C
   C14        1.0     0.219992     0.150229     0.539474    Uiso  ? C
   C14        1.0     0.219992     0.150229     0.682331    Uiso  ? C
   C14        1.0     0.219992     0.150229     0.825188    Uiso  ? C
   C14        1.0     0.219992     0.150229     0.968045    Uiso  ? C
   C14        1.0     0.219992     0.400229     0.110902    Uiso  ? C
   C14        1.0     0.219992     0.400229     0.253759    Uiso  ? C
   C14        1.0     0.219992     0.400229     0.396616    Uiso  ? C
   C14        1.0     0.219992     0.400229     0.539474    Uiso  ? C
   C14        1.0     0.219992     0.400229     0.682331    Uiso  ? C
   C14        1.0     0.219992     0.400229     0.825188    Uiso  ? C
   C14        1.0     0.219992     0.400229     0.968045    Uiso  ? C
   C14        1.0     0.219992     0.650229     0.110902    Uiso  ? C
   C14        1.0     0.219992     0.650229     0.253759    Uiso  ? C
   C14        1.0     0.219992     0.650229     0.396616    Uiso  ? C
   C14        1.0     0.219992     0.650229     0.539474    Uiso  ? C
   C14        1.0     0.219992     0.650229     0.682331    Uiso  ? C
   C14        1.0     0.219992     0.650229     0.825188    Uiso  ? C
   C14        1.0     0.219992     0.650229     0.968045    Uiso  ? C
   C14        1.0     0.219992     0.900229     0.110902    Uiso  ? C
   C14        1.0     0.219992     0.900229     0.253759    Uiso  ? C
   C14        1.0     0.219992     0.900229     0.396616    Uiso  ? C
   C14        1.0     0.219992     0.900229     0.539474    Uiso  ? C
   C14        1.0     0.219992     0.900229     0.682331    Uiso  ? C
   C14        1.0     0.219992     0.900229     0.825188    Uiso  ? C
   C14        1.0     0.219992     0.900229     0.968045    Uiso  ? C
   C14        1.0     0.553326     0.150229     0.110902    Uiso  ? C
   C14        1.0     0.553326     0.150229     0.253759    Uiso  ? C
   C14        1.0     0.553326     0.150229     0.396616    Uiso  ? C
   C14        1.0     0.553326     0.150229     0.539474    Uiso  ? C
   C14        1.0     0.553326     0.150229     0.682331    Uiso  ? C
   C14        1.0     0.553326     0.150229     0.825188    Uiso  ? C
   C14        1.0     0.553326     0.150229     0.968045    Uiso  ? C
   C14        1.0     0.553326     0.400229     0.110902    Uiso  ? C
   C14        1.0     0.553326     0.400229     0.253759    Uiso  ? C
   C14        1.0     0.553326     0.400229     0.396616    Uiso  ? C
   C14        1.0     0.553326     0.400229     0.539474    Uiso  ? C
   C14        1.0     0.553326     0.400229     0.682331    Uiso  ? C
   C14        1.0     0.553326     0.400229     0.825188    Uiso  ? C
   C14        1.0     0.553326     0.400229     0.968045    Uiso  ? C
   C14        1.0     0.553326     0.650229     0.110902    Uiso  ? C
   C14        1.0     0.553326     0.650229     0.253759    Uiso  ? C
   C14        1.0     0.553326     0.650229     0.396616    Uiso  ? C
   C14        1.0     0.553326     0.650229     0.539474    Uiso  ? C
   C14        1.0     0.553326     0.650229     0.682331    Uiso  ? C
   C14        1.0     0.553326     0.650229     0.825188    Uiso  ? C
   C14        1.0     0.553326     0.650229     0.968045    Uiso  ? C
   C14        1.0     0.553326     0.900229     0.110902    Uiso  ? C
   C14        1.0     0.553326     0.900229     0.253759    Uiso  ? C
   C14        1.0     0.553326     0.900229     0.396616    Uiso  ? C
   C14        1.0     0.553326     0.900229     0.539474    Uiso  ? C
   C14        1.0     0.553326     0.900229     0.682331    Uiso  ? C
   C14        1.0     0.553326     0.900229     0.825188    Uiso  ? C
   C14        1.0     0.553326     0.900229     0.968045    Uiso  ? C
   C14        1.0     0.886659     0.150229     0.110902    Uiso  ? C
   C14        1.0     0.886659     0.150229     0.253759    Uiso  ? C
   C14        1.0     0.886659     0.150229     0.396616    Uiso  ? C
   C14        1.0     0.886659     0.150229     0.539474    Uiso  ? C
   C14        1.0     0.886659     0.150229     0.682331    Uiso  ? C
   C14        1.0     0.886659     0.150229     0.825188    Uiso  ? C
   C14        1.0     0.886659     0.150229     0.968045    Uiso  ? C
   C14        1.0     0.886659     0.400229     0.110902    Uiso  ? C
   C14        1.0     0.886659     0.400229     0.253759    Uiso  ? C
   C14        1.0     0.886659     0.400229     0.396616    Uiso  ? C
   C14        1.0     0.886659     0.400229     0.539474    Uiso  ? C
   C14        1.0     0.886659     0.400229     0.682331    Uiso  ? C
   C14        1.0     0.886659     0.400229     0.825188    Uiso  ? C
   C14        1.0     0.886659     0.400229     0.968045    Uiso  ? C
   C14        1.0     0.886659     0.650229     0.110902    Uiso  ? C
   C14        1.0     0.886659     0.650229     0.253759    Uiso  ? C
   C14        1.0     0.886659     0.650229     0.396616    Uiso  ? C
   C14        1.0     0.886659     0.650229     0.539474    Uiso  ? C
   C14        1.0     0.886659     0.650229     0.682331    Uiso  ? C
   C14        1.0     0.886659     0.650229     0.825188    Uiso  ? C
   C14        1.0     0.886659     0.650229     0.968045    Uiso  ? C
   C14        1.0     0.886659     0.900229     0.110902    Uiso  ? C
   C14        1.0     0.886659     0.900229     0.253759    Uiso  ? C
   C14        1.0     0.886659     0.900229     0.396616    Uiso  ? C
   C14        1.0     0.886659     0.900229     0.539474    Uiso  ? C
   C14        1.0     0.886659     0.900229     0.682331    Uiso  ? C
   C14        1.0     0.886659     0.900229     0.825188    Uiso  ? C
   C14        1.0     0.886659     0.900229     0.968045    Uiso  ? C
   C15        1.0     0.053993     0.027508     0.100919    Uiso  ? C
   C15        1.0     0.053993     0.027508     0.243777    Uiso  ? C
   C15        1.0     0.053993     0.027508     0.386634    Uiso  ? C
   C15        1.0     0.053993     0.027508     0.529491    Uiso  ? C
   C15        1.0     0.053993     0.027508     0.672348    Uiso  ? C
   C15        1.0     0.053993     0.027508     0.815205    Uiso  ? C
   C15        1.0     0.053993     0.027508     0.958062    Uiso  ? C
   C15        1.0     0.053993     0.277508     0.100919    Uiso  ? C
   C15        1.0     0.053993     0.277508     0.243777    Uiso  ? C
   C15        1.0     0.053993     0.277508     0.386634    Uiso  ? C
   C15        1.0     0.053993     0.277508     0.529491    Uiso  ? C
   C15        1.0     0.053993     0.277508     0.672348    Uiso  ? C
   C15        1.0     0.053993     0.277508     0.815205    Uiso  ? C
   C15        1.0     0.053993     0.277508     0.958062    Uiso  ? C
   C15        1.0     0.053993     0.527508     0.100919    Uiso  ? C
   C15        1.0     0.053993     0.527508     0.243777    Uiso  ? C
   C15        1.0     0.053993     0.527508     0.386634    Uiso  ? C
   C15        1.0     0.053993     0.527508     0.529491    Uiso  ? C
   C15        1.0     0.053993     0.527508     0.672348    Uiso  ? C
   C15        1.0     0.053993     0.527508     0.815205    Uiso  ? C
   C15        1.0     0.053993     0.527508     0.958062    Uiso  ? C
   C15        1.0     0.053993     0.777508     0.100919    Uiso  ? C
   C15        1.0     0.053993     0.777508     0.243777    Uiso  ? C
   C15        1.0     0.053993     0.777508     0.386634    Uiso  ? C
   C15        1.0     0.053993     0.777508     0.529491    Uiso  ? C
   C15        1.0     0.053993     0.777508     0.672348    Uiso  ? C
   C15        1.0     0.053993     0.777508     0.815205    Uiso  ? C
   C15        1.0     0.053993     0.777508     0.958062    Uiso  ? C
   C15        1.0     0.387327     0.027508     0.100919    Uiso  ? C
   C15        1.0     0.387327     0.027508     0.243777    Uiso  ? C
   C15        1.0     0.387327     0.027508     0.386634    Uiso  ? C
   C15        1.0     0.387327     0.027508     0.529491    Uiso  ? C
   C15        1.0     0.387327     0.027508     0.672348    Uiso  ? C
   C15        1.0     0.387327     0.027508     0.815205    Uiso  ? C
   C15        1.0     0.387327     0.027508     0.958062    Uiso  ? C
   C15        1.0     0.387327     0.277508     0.100919    Uiso  ? C
   C15        1.0     0.387327     0.277508     0.243777    Uiso  ? C
   C15        1.0     0.387327     0.277508     0.386634    Uiso  ? C
   C15        1.0     0.387327     0.277508     0.529491    Uiso  ? C
   C15        1.0     0.387327     0.277508     0.672348    Uiso  ? C
   C15        1.0     0.387327     0.277508     0.815205    Uiso  ? C
   C15        1.0     0.387327     0.277508     0.958062    Uiso  ? C
   C15        1.0     0.387327     0.527508     0.100919    Uiso  ? C
   C15        1.0     0.387327     0.527508     0.243777    Uiso  ? C
   C15        1.0     0.387327     0.527508     0.386634    Uiso  ? C
   C15        1.0     0.387327     0.527508     0.529491    Uiso  ? C
   C15        1.0     0.387327     0.527508     0.672348    Uiso  ? C
   C15        1.0     0.387327     0.527508     0.815205    Uiso  ? C
   C15        1.0     0.387327     0.527508     0.958062    Uiso  ? C
   C15        1.0     0.387327     0.777508     0.100919    Uiso  ? C
   C15        1.0     0.387327     0.777508     0.243777    Uiso  ? C
   C15        1.0     0.387327     0.777508     0.386634    Uiso  ? C
   C15        1.0     0.387327     0.777508     0.529491    Uiso  ? C
   C15        1.0     0.387327     0.777508     0.672348    Uiso  ? C
   C15        1.0     0.387327     0.777508     0.815205    Uiso  ? C
   C15        1.0     0.387327     0.777508     0.958062    Uiso  ? C
   C15        1.0     0.720660     0.027508     0.100919    Uiso  ? C
   C15        1.0     0.720660     0.027508     0.243777    Uiso  ? C
   C15        1.0     0.720660     0.027508     0.386634    Uiso  ? C
   C15        1.0     0.720660     0.027508     0.529491    Uiso  ? C
   C15        1.0     0.720660     0.027508     0.672348    Uiso  ? C
   C15        1.0     0.720660     0.027508     0.815205    Uiso  ? C
   C15        1.0     0.720660     0.027508     0.958062    Uiso  ? C
   C15        1.0     0.720660     0.277508     0.100919    Uiso  ? C
   C15        1.0     0.720660     0.277508     0.243777    Uiso  ? C
   C15        1.0     0.720660     0.277508     0.386634    Uiso  ? C
   C15        1.0     0.720660     0.277508     0.529491    Uiso  ? C
   C15        1.0     0.720660     0.277508     0.672348    Uiso  ? C
   C15        1.0     0.720660     0.277508     0.815205    Uiso  ? C
   C15        1.0     0.720660     0.277508     0.958062    Uiso  ? C
   C15        1.0     0.720660     0.527508     0.100919    Uiso  ? C
   C15        1.0     0.720660     0.527508     0.243777    Uiso  ? C
   C15        1.0     0.720660     0.527508     0.386634    Uiso  ? C
   C15        1.0     0.720660     0.527508     0.529491    Uiso  ? C
   C15        1.0     0.720660     0.527508     0.672348    Uiso  ? C
   C15        1.0     0.720660     0.527508     0.815205    Uiso  ? C
   C15        1.0     0.720660     0.527508     0.958062    Uiso  ? C
   C15        1.0     0.720660     0.777508     0.100919    Uiso  ? C
   C15        1.0     0.720660     0.777508     0.243777    Uiso  ? C
   C15        1.0     0.720660     0.777508     0.386634    Uiso  ? C
   C15        1.0     0.720660     0.777508     0.529491    Uiso  ? C
   C15        1.0     0.720660     0.777508     0.672348    Uiso  ? C
   C15        1.0     0.720660     0.777508     0.815205    Uiso  ? C
   C15        1.0     0.720660     0.777508     0.958062    Uiso  ? C
   C16        1.0     0.053914     0.101092     0.100560    Uiso  ? C
   C16        1.0     0.053914     0.101092     0.243417    Uiso  ? C
   C16        1.0     0.053914     0.101092     0.386274    Uiso  ? C
   C16        1.0     0.053914     0.101092     0.529131    Uiso  ? C
   C16        1.0     0.053914     0.101092     0.671988    Uiso  ? C
   C16        1.0     0.053914     0.101092     0.814846    Uiso  ? C
   C16        1.0     0.053914     0.101092     0.957703    Uiso  ? C
   C16        1.0     0.053914     0.351092     0.100560    Uiso  ? C
   C16        1.0     0.053914     0.351092     0.243417    Uiso  ? C
   C16        1.0     0.053914     0.351092     0.386274    Uiso  ? C
   C16        1.0     0.053914     0.351092     0.529131    Uiso  ? C
   C16        1.0     0.053914     0.351092     0.671988    Uiso  ? C
   C16        1.0     0.053914     0.351092     0.814846    Uiso  ? C
   C16        1.0     0.053914     0.351092     0.957703    Uiso  ? C
   C16        1.0     0.053914     0.601092     0.100560    Uiso  ? C
   C16        1.0     0.053914     0.601092     0.243417    Uiso  ? C
   C16        1.0     0.053914     0.601092     0.386274    Uiso  ? C
   C16        1.0     0.053914     0.601092     0.529131    Uiso  ? C
   C16        1.0     0.053914     0.601092     0.671988    Uiso  ? C
   C16        1.0     0.053914     0.601092     0.814846    Uiso  ? C
   C16        1.0     0.053914     0.601092     0.957703    Uiso  ? C
   C16        1.0     0.053914     0.851092     0.100560    Uiso  ? C
   C16        1.0     0.053914     0.851092     0.243417    Uiso  ? C
   C16        1.0     0.053914     0.851092     0.386274    Uiso  ? C
   C16        1.0     0.053914     0.851092     0.529131    Uiso  ? C
   C16        1.0     0.053914     0.851092     0.671988    Uiso  ? C
   C16        1.0     0.053914     0.851092     0.814846    Uiso  ? C
   C16        1.0     0.053914     0.851092     0.957703    Uiso  ? C
   C16        1.0     0.387247     0.101092     0.100560    Uiso  ? C
   C16        1.0     0.387247     0.101092     0.243417    Uiso  ? C
   C16        1.0     0.387247     0.101092     0.386274    Uiso  ? C
   C16        1.0     0.387247     0.101092     0.529131    Uiso  ? C
   C16        1.0     0.387247     0.101092     0.671988    Uiso  ? C
   C16        1.0     0.387247     0.101092     0.814846    Uiso  ? C
   C16        1.0     0.387247     0.101092     0.957703    Uiso  ? C
   C16        1.0     0.387247     0.351092     0.100560    Uiso  ? C
   C16        1.0     0.387247     0.351092     0.243417    Uiso  ? C
   C16        1.0     0.387247     0.351092     0.386274    Uiso  ? C
   C16        1.0     0.387247     0.351092     0.529131    Uiso  ? C
   C16        1.0     0.387247     0.351092     0.671988    Uiso  ? C
   C16        1.0     0.387247     0.351092     0.814846    Uiso  ? C
   C16        1.0     0.387247     0.351092     0.957703    Uiso  ? C
   C16        1.0     0.387247     0.601092     0.100560    Uiso  ? C
   C16        1.0     0.387247     0.601092     0.243417    Uiso  ? C
   C16        1.0     0.387247     0.601092     0.386274    Uiso  ? C
   C16        1.0     0.387247     0.601092     0.529131    Uiso  ? C
   C16        1.0     0.387247     0.601092     0.671988    Uiso  ? C
   C16        1.0     0.387247     0.601092     0.814846    Uiso  ? C
   C16        1.0     0.387247     0.601092     0.957703    Uiso  ? C
   C16        1.0     0.387247     0.851092     0.100560    Uiso  ? C
   C16        1.0     0.387247     0.851092     0.243417    Uiso  ? C
   C16        1.0     0.387247     0.851092     0.386274    Uiso  ? C
   C16        1.0     0.387247     0.851092     0.529131    Uiso  ? C
   C16        1.0     0.387247     0.851092     0.671988    Uiso  ? C
   C16        1.0     0.387247     0.851092     0.814846    Uiso  ? C
   C16        1.0     0.387247     0.851092     0.957703    Uiso  ? C
   C16        1.0     0.720581     0.101092     0.100560    Uiso  ? C
   C16        1.0     0.720581     0.101092     0.243417    Uiso  ? C
   C16        1.0     0.720581     0.101092     0.386274    Uiso  ? C
   C16        1.0     0.720581     0.101092     0.529131    Uiso  ? C
   C16        1.0     0.720581     0.101092     0.671988    Uiso  ? C
   C16        1.0     0.720581     0.101092     0.814846    Uiso  ? C
   C16        1.0     0.720581     0.101092     0.957703    Uiso  ? C
   C16        1.0     0.720581     0.351092     0.100560    Uiso  ? C
   C16        1.0     0.720581     0.351092     0.243417    Uiso  ? C
   C16        1.0     0.720581     0.351092     0.386274    Uiso  ? C
   C16        1.0     0.720581     0.351092     0.529131    Uiso  ? C
   C16        1.0     0.720581     0.351092     0.671988    Uiso  ? C
   C16        1.0     0.720581     0.351092     0.814846    Uiso  ? C
   C16        1.0     0.720581     0.351092     0.957703    Uiso  ? C
   C16        1.0     0.720581     0.601092     0.100560    Uiso  ? C
   C16        1.0     0.720581     0.601092     0.243417    Uiso  ? C
   C16        1.0     0.720581     0.601092     0.386274    Uiso  ? C
   C16        1.0     0.720581     0.601092     0.529131    Uiso  ? C
   C16        1.0     0.720581     0.601092     0.671988    Uiso  ? C
   C16        1.0     0.720581     0.601092     0.814846    Uiso  ? C
   C16        1.0     0.720581     0.601092     0.957703    Uiso  ? C
   C16        1.0     0.720581     0.851092     0.100560    Uiso  ? C
   C16        1.0     0.720581     0.851092     0.243417    Uiso  ? C
   C16        1.0     0.720581     0.851092     0.386274    Uiso  ? C
   C16        1.0     0.720581     0.851092     0.529131    Uiso  ? C
   C16        1.0     0.720581     0.851092     0.671988    Uiso  ? C
   C16        1.0     0.720581     0.851092     0.814846    Uiso  ? C
   C16        1.0     0.720581     0.851092     0.957703    Uiso  ? C
   C17        1.0     0.177987     0.024342     0.097770    Uiso  ? C
   C17        1.0     0.177987     0.024342     0.240627    Uiso  ? C
   C17        1.0     0.177987     0.024342     0.383484    Uiso  ? C
   C17        1.0     0.177987     0.024342     0.526341    Uiso  ? C
   C17        1.0     0.177987     0.024342     0.669198    Uiso  ? C
   C17        1.0     0.177987     0.024342     0.812055    Uiso  ? C
   C17        1.0     0.177987     0.024342     0.954912    Uiso  ? C
   C17        1.0     0.177987     0.274342     0.097770    Uiso  ? C
   C17        1.0     0.177987     0.274342     0.240627    Uiso  ? C
   C17        1.0     0.177987     0.274342     0.383484    Uiso  ? C
   C17        1.0     0.177987     0.274342     0.526341    Uiso  ? C
   C17        1.0     0.177987     0.274342     0.669198    Uiso  ? C
   C17        1.0     0.177987     0.274342     0.812055    Uiso  ? C
   C17        1.0     0.177987     0.274342     0.954912    Uiso  ? C
   C17        1.0     0.177987     0.524342     0.097770    Uiso  ? C
   C17        1.0     0.177987     0.524342     0.240627    Uiso  ? C
   C17        1.0     0.177987     0.524342     0.383484    Uiso  ? C
   C17        1.0     0.177987     0.524342     0.526341    Uiso  ? C
   C17        1.0     0.177987     0.524342     0.669198    Uiso  ? C
   C17        1.0     0.177987     0.524342     0.812055    Uiso  ? C
   C17        1.0     0.177987     0.524342     0.954912    Uiso  ? C
   C17        1.0     0.177987     0.774342     0.097770    Uiso  ? C
   C17        1.0     0.177987     0.774342     0.240627    Uiso  ? C
   C17        1.0     0.177987     0.774342     0.383484    Uiso  ? C
   C17        1.0     0.177987     0.774342     0.526341    Uiso  ? C
   C17        1.0     0.177987     0.774342     0.669198    Uiso  ? C
   C17        1.0     0.177987     0.774342     0.812055    Uiso  ? C
   C17        1.0     0.177987     0.774342     0.954912    Uiso  ? C
   C17        1.0     0.511320     0.024342     0.097770    Uiso  ? C
   C17        1.0     0.511320     0.024342     0.240627    Uiso  ? C
   C17        1.0     0.511320     0.024342     0.383484    Uiso  ? C
   C17        1.0     0.511320     0.024342     0.526341    Uiso  ? C
   C17        1.0     0.511320     0.024342     0.669198    Uiso  ? C
   C17        1.0     0.511320     0.024342     0.812055    Uiso  ? C
   C17        1.0     0.511320     0.024342     0.954912    Uiso  ? C
   C17        1.0     0.511320     0.274342     0.097770    Uiso  ? C
   C17        1.0     0.511320     0.274342     0.240627    Uiso  ? C
   C17        1.0     0.511320     0.274342     0.383484    Uiso  ? C
   C17        1.0     0.511320     0.274342     0.526341    Uiso  ? C
   C17        1.0     0.511320     0.274342     0.669198    Uiso  ? C
   C17        1.0     0.511320     0.274342     0.812055    Uiso  ? C
   C17        1.0     0.511320     0.274342     0.954912    Uiso  ? C
   C17        1.0     0.511320     0.524342     0.097770    Uiso  ? C
   C17        1.0     0.511320     0.524342     0.240627    Uiso  ? C
   C17        1.0     0.511320     0.524342     0.383484    Uiso  ? C
   C17        1.0     0.511320     0.524342     0.526341    Uiso  ? C
   C17        1.0     0.511320     0.524342     0.669198    Uiso  ? C
   C17        1.0     0.511320     0.524342     0.812055    Uiso  ? C
   C17        1.0     0.511320     0.524342     0.954912    Uiso  ? C
   C17        1.0     0.511320     0.774342     0.097770    Uiso  ? C
   C17        1.0     0.511320     0.774342     0.240627    Uiso  ? C
   C17        1.0     0.511320     0.774342     0.383484    Uiso  ? C
   C17        1.0     0.511320     0.774342     0.526341    Uiso  ? C
   C17        1.0     0.511320     0.774342     0.669198    Uiso  ? C
   C17        1.0     0.511320     0.774342     0.812055    Uiso  ? C
   C17        1.0     0.511320     0.774342     0.954912    Uiso  ? C
   C17        1.0     0.844654     0.024342     0.097770    Uiso  ? C
   C17        1.0     0.844654     0.024342     0.240627    Uiso  ? C
   C17        1.0     0.844654     0.024342     0.383484    Uiso  ? C
   C17        1.0     0.844654     0.024342     0.526341    Uiso  ? C
   C17        1.0     0.844654     0.024342     0.669198    Uiso  ? C
   C17        1.0     0.844654     0.024342     0.812055    Uiso  ? C
   C17        1.0     0.844654     0.024342     0.954912    Uiso  ? C
   C17        1.0     0.844654     0.274342     0.097770    Uiso  ? C
   C17        1.0     0.844654     0.274342     0.240627    Uiso  ? C
   C17        1.0     0.844654     0.274342     0.383484    Uiso  ? C
   C17        1.0     0.844654     0.274342     0.526341    Uiso  ? C
   C17        1.0     0.844654     0.274342     0.669198    Uiso  ? C
   C17        1.0     0.844654     0.274342     0.812055    Uiso  ? C
   C17        1.0     0.844654     0.274342     0.954912    Uiso  ? C
   C17        1.0     0.844654     0.524342     0.097770    Uiso  ? C
   C17        1.0     0.844654     0.524342     0.240627    Uiso  ? C
   C17        1.0     0.844654     0.524342     0.383484    Uiso  ? C
   C17        1.0     0.844654     0.524342     0.526341    Uiso  ? C
   C17        1.0     0.844654     0.524342     0.669198    Uiso  ? C
   C17        1.0     0.844654     0.524342     0.812055    Uiso  ? C
   C17        1.0     0.844654     0.524342     0.954912    Uiso  ? C
   C17        1.0     0.844654     0.774342     0.097770    Uiso  ? C
   C17        1.0     0.844654     0.774342     0.240627    Uiso  ? C
   C17        1.0     0.844654     0.774342     0.383484    Uiso  ? C
   C17        1.0     0.844654     0.774342     0.526341    Uiso  ? C
   C17        1.0     0.844654     0.774342     0.669198    Uiso  ? C
   C17        1.0     0.844654     0.774342     0.812055    Uiso  ? C
   C17        1.0     0.844654     0.774342     0.954912    Uiso  ? C
   C18        1.0     0.038061     0.005956     0.097161    Uiso  ? C
   C18        1.0     0.038061     0.005956     0.240018    Uiso  ? C
   C18        1.0     0.038061     0.005956     0.382875    Uiso  ? C
   C18        1.0     0.038061     0.005956     0.525732    Uiso  ? C
   C18        1.0     0.038061     0.005956     0.668590    Uiso  ? C
   C18        1.0     0.038061     0.005956     0.811447    Uiso  ? C
   C18        1.0     0.038061     0.005956     0.954304    Uiso  ? C
   C18        1.0     0.038061     0.255956     0.097161    Uiso  ? C
   C18        1.0     0.038061     0.255956     0.240018    Uiso  ? C
   C18        1.0     0.038061     0.255956     0.382875    Uiso  ? C
   C18        1.0     0.038061     0.255956     0.525732    Uiso  ? C
   C18        1.0     0.038061     0.255956     0.668590    Uiso  ? C
   C18        1.0     0.038061     0.255956     0.811447    Uiso  ? C
   C18        1.0     0.038061     0.255956     0.954304    Uiso  ? C
   C18        1.0     0.038061     0.505956     0.097161    Uiso  ? C
   C18        1.0     0.038061     0.505956     0.240018    Uiso  ? C
   C18        1.0     0.038061     0.505956     0.382875    Uiso  ? C
   C18        1.0     0.038061     0.505956     0.525732    Uiso  ? C
   C18        1.0     0.038061     0.505956     0.668590    Uiso  ? C
   C18        1.0     0.038061     0.505956     0.811447    Uiso  ? C
   C18        1.0     0.038061     0.505956     0.954304    Uiso  ? C
   C18        1.0     0.038061     0.755956     0.097161    Uiso  ? C
   C18        1.0     0.038061     0.755956     0.240018    Uiso  ? C
   C18        1.0     0.038061     0.755956     0.382875    Uiso  ? C
   C18        1.0     0.038061     0.755956     0.525732    Uiso  ? C
   C18        1.0     0.038061     0.755956     0.668590    Uiso  ? C
   C18        1.0     0.038061     0.755956     0.811447    Uiso  ? C
   C18        1.0     0.038061     0.755956     0.954304    Uiso  ? C
   C18        1.0     0.371394     0.005956     0.097161    Uiso  ? C
   C18        1.0     0.371394     0.005956     0.240018    Uiso  ? C
   C18        1.0     0.371394     0.005956     0.382875    Uiso  ? C
   C18        1.0     0.371394     0.005956     0.525732    Uiso  ? C
   C18        1.0     0.371394     0.005956     0.668590    Uiso  ? C
   C18        1.0     0.371394     0.005956     0.811447    Uiso  ? C
   C18        1.0     0.371394     0.005956     0.954304    Uiso  ? C
   C18        1.0     0.371394     0.255956     0.097161    Uiso  ? C
   C18        1.0     0.371394     0.255956     0.240018    Uiso  ? C
   C18        1.0     0.371394     0.255956     0.382875    Uiso  ? C
   C18        1.0     0.371394     0.255956     0.525732    Uiso  ? C
   C18        1.0     0.371394     0.255956     0.668590    Uiso  ? C
   C18        1.0     0.371394     0.255956     0.811447    Uiso  ? C
   C18        1.0     0.371394     0.255956     0.954304    Uiso  ? C
   C18        1.0     0.371394     0.505956     0.097161    Uiso  ? C
   C18        1.0     0.371394     0.505956     0.240018    Uiso  ? C
   C18        1.0     0.371394     0.505956     0.382875    Uiso  ? C
   C18        1.0     0.371394     0.505956     0.525732    Uiso  ? C
   C18        1.0     0.371394     0.505956     0.668590    Uiso  ? C
   C18        1.0     0.371394     0.505956     0.811447    Uiso  ? C
   C18        1.0     0.371394     0.505956     0.954304    Uiso  ? C
   C18        1.0     0.371394     0.755956     0.097161    Uiso  ? C
   C18        1.0     0.371394     0.755956     0.240018    Uiso  ? C
   C18        1.0     0.371394     0.755956     0.382875    Uiso  ? C
   C18        1.0     0.371394     0.755956     0.525732    Uiso  ? C
   C18        1.0     0.371394     0.755956     0.668590    Uiso  ? C
   C18        1.0     0.371394     0.755956     0.811447    Uiso  ? C
   C18        1.0     0.371394     0.755956     0.954304    Uiso  ? C
   C18        1.0     0.704727     0.005956     0.097161    Uiso  ? C
   C18        1.0     0.704727     0.005956     0.240018    Uiso  ? C
   C18        1.0     0.704727     0.005956     0.382875    Uiso  ? C
   C18        1.0     0.704727     0.005956     0.525732    Uiso  ? C
   C18        1.0     0.704727     0.005956     0.668590    Uiso  ? C
   C18        1.0     0.704727     0.005956     0.811447    Uiso  ? C
   C18        1.0     0.704727     0.005956     0.954304    Uiso  ? C
   C18        1.0     0.704727     0.255956     0.097161    Uiso  ? C
   C18        1.0     0.704727     0.255956     0.240018    Uiso  ? C
   C18        1.0     0.704727     0.255956     0.382875    Uiso  ? C
   C18        1.0     0.704727     0.255956     0.525732    Uiso  ? C
   C18        1.0     0.704727     0.255956     0.668590    Uiso  ? C
   C18        1.0     0.704727     0.255956     0.811447    Uiso  ? C
   C18        1.0     0.704727     0.255956     0.954304    Uiso  ? C
   C18        1.0     0.704727     0.505956     0.097161    Uiso  ? C
   C18        1.0     0.704727     0.505956     0.240018    Uiso  ? C
   C18        1.0     0.704727     0.505956     0.382875    Uiso  ? C
   C18        1.0     0.704727     0.505956     0.525732    Uiso  ? C
   C18        1.0     0.704727     0.505956     0.668590    Uiso  ? C
   C18        1.0     0.704727     0.505956     0.811447    Uiso  ? C
   C18        1.0     0.704727     0.505956     0.954304    Uiso  ? C
   C18        1.0     0.704727     0.755956     0.097161    Uiso  ? C
   C18        1.0     0.704727     0.755956     0.240018    Uiso  ? C
   C18        1.0     0.704727     0.755956     0.382875    Uiso  ? C
   C18        1.0     0.704727     0.755956     0.525732    Uiso  ? C
   C18        1.0     0.704727     0.755956     0.668590    Uiso  ? C
   C18        1.0     0.704727     0.755956     0.811447    Uiso  ? C
   C18        1.0     0.704727     0.755956     0.954304    Uiso  ? C
   C19        1.0     0.037730     0.122413     0.096928    Uiso  ? C
   C19        1.0     0.037730     0.122413     0.239786    Uiso  ? C
   C19        1.0     0.037730     0.122413     0.382643    Uiso  ? C
   C19        1.0     0.037730     0.122413     0.525500    Uiso  ? C
   C19        1.0     0.037730     0.122413     0.668357    Uiso  ? C
   C19        1.0     0.037730     0.122413     0.811214    Uiso  ? C
   C19        1.0     0.037730     0.122413     0.954071    Uiso  ? C
   C19        1.0     0.037730     0.372413     0.096928    Uiso  ? C
   C19        1.0     0.037730     0.372413     0.239786    Uiso  ? C
   C19        1.0     0.037730     0.372413     0.382643    Uiso  ? C
   C19        1.0     0.037730     0.372413     0.525500    Uiso  ? C
   C19        1.0     0.037730     0.372413     0.668357    Uiso  ? C
   C19        1.0     0.037730     0.372413     0.811214    Uiso  ? C
   C19        1.0     0.037730     0.372413     0.954071    Uiso  ? C
   C19        1.0     0.037730     0.622413     0.096928    Uiso  ? C
   C19        1.0     0.037730     0.622413     0.239786    Uiso  ? C
   C19        1.0     0.037730     0.622413     0.382643    Uiso  ? C
   C19        1.0     0.037730     0.622413     0.525500    Uiso  ? C
   C19        1.0     0.037730     0.622413     0.668357    Uiso  ? C
   C19        1.0     0.037730     0.622413     0.811214    Uiso  ? C
   C19        1.0     0.037730     0.622413     0.954071    Uiso  ? C
   C19        1.0     0.037730     0.872413     0.096928    Uiso  ? C
   C19        1.0     0.037730     0.872413     0.239786    Uiso  ? C
   C19        1.0     0.037730     0.872413     0.382643    Uiso  ? C
   C19        1.0     0.037730     0.872413     0.525500    Uiso  ? C
   C19        1.0     0.037730     0.872413     0.668357    Uiso  ? C
   C19        1.0     0.037730     0.872413     0.811214    Uiso  ? C
   C19        1.0     0.037730     0.872413     0.954071    Uiso  ? C
   C19        1.0     0.371063     0.122413     0.096928    Uiso  ? C
   C19        1.0     0.371063     0.122413     0.239786    Uiso  ? C
   C19        1.0     0.371063     0.122413     0.382643    Uiso  ? C
   C19        1.0     0.371063     0.122413     0.525500    Uiso  ? C
   C19        1.0     0.371063     0.122413     0.668357    Uiso  ? C
   C19        1.0     0.371063     0.122413     0.811214    Uiso  ? C
   C19        1.0     0.371063     0.122413     0.954071    Uiso  ? C
   C19        1.0     0.371063     0.372413     0.096928    Uiso  ? C
   C19        1.0     0.371063     0.372413     0.239786    Uiso  ? C
   C19        1.0     0.371063     0.372413     0.382643    Uiso  ? C
   C19        1.0     0.371063     0.372413     0.525500    Uiso  ? C
   C19        1.0     0.371063     0.372413     0.668357    Uiso  ? C
   C19        1.0     0.371063     0.372413     0.811214    Uiso  ? C
   C19        1.0     0.371063     0.372413     0.954071    Uiso  ? C
   C19        1.0     0.371063     0.622413     0.096928    Uiso  ? C
   C19        1.0     0.371063     0.622413     0.239786    Uiso  ? C
   C19        1.0     0.371063     0.622413     0.382643    Uiso  ? C
   C19        1.0     0.371063     0.622413     0.525500    Uiso  ? C
   C19        1.0     0.371063     0.622413     0.668357    Uiso  ? C
   C19        1.0     0.371063     0.622413     0.811214    Uiso  ? C
   C19        1.0     0.371063     0.622413     0.954071    Uiso  ? C
   C19        1.0     0.371063     0.872413     0.096928    Uiso  ? C
   C19        1.0     0.371063     0.872413     0.239786    Uiso  ? C
   C19        1.0     0.371063     0.872413     0.382643    Uiso  ? C
   C19        1.0     0.371063     0.872413     0.525500    Uiso  ? C
   C19        1.0     0.371063     0.872413     0.668357    Uiso  ? C
   C19        1.0     0.371063     0.872413     0.811214    Uiso  ? C
   C19        1.0     0.371063     0.872413     0.954071    Uiso  ? C
   C19        1.0     0.704396     0.122413     0.096928    Uiso  ? C
   C19        1.0     0.704396     0.122413     0.239786    Uiso  ? C
   C19        1.0     0.704396     0.122413     0.382643    Uiso  ? C
   C19        1.0     0.704396     0.122413     0.525500    Uiso  ? C
   C19        1.0     0.704396     0.122413     0.668357    Uiso  ? C
   C19        1.0     0.704396     0.122413     0.811214    Uiso  ? C
   C19        1.0     0.704396     0.122413     0.954071    Uiso  ? C
   C19        1.0     0.704396     0.372413     0.096928    Uiso  ? C
   C19        1.0     0.704396     0.372413     0.239786    Uiso  ? C
   C19        1.0     0.704396     0.372413     0.382643    Uiso  ? C
   C19        1.0     0.704396     0.372413     0.525500    Uiso  ? C
   C19        1.0     0.704396     0.372413     0.668357    Uiso  ? C
   C19        1.0     0.704396     0.372413     0.811214    Uiso  ? C
   C19        1.0     0.704396     0.372413     0.954071    Uiso  ? C
   C19        1.0     0.704396     0.622413     0.096928    Uiso  ? C
   C19        1.0     0.704396     0.622413     0.239786    Uiso  ? C
   C19        1.0     0.704396     0.622413     0.382643    Uiso  ? C
   C19        1.0     0.704396     0.622413     0.525500    Uiso  ? C
   C19        1.0     0.704396     0.622413     0.668357    Uiso  ? C
   C19        1.0     0.704396     0.622413     0.811214    Uiso  ? C
   C19        1.0     0.704396     0.622413     0.954071    Uiso  ? C
   C19        1.0     0.704396     0.872413     0.096928    Uiso  ? C
   C19        1.0     0.704396     0.872413     0.239786    Uiso  ? C
   C19        1.0     0.704396     0.872413     0.382643    Uiso  ? C
   C19        1.0     0.704396     0.872413     0.525500    Uiso  ? C
   C19        1.0     0.704396     0.872413     0.668357    Uiso  ? C
   C19        1.0     0.704396     0.872413     0.811214    Uiso  ? C
   C19        1.0     0.704396     0.872413     0.954071    Uiso  ? C
   C20        1.0     0.179624     0.096677     0.096716    Uiso  ? C
   C20        1.0     0.179624     0.096677     0.239573    Uiso  ? C
   C20        1.0     0.179624     0.096677     0.382430    Uiso  ? C
   C20        1.0     0.179624     0.096677     0.525287    Uiso  ? C
   C20        1.0     0.179624     0.096677     0.668144    Uiso  ? C
   C20        1.0     0.179624     0.096677     0.811002    Uiso  ? C
   C20        1.0     0.179624     0.096677     0.953859    Uiso  ? C
   C20        1.0     0.179624     0.346677     0.096716    Uiso  ? C
   C20        1.0     0.179624     0.346677     0.239573    Uiso  ? C
   C20        1.0     0.179624     0.346677     0.382430    Uiso  ? C
   C20        1.0     0.179624     0.346677     0.525287    Uiso  ? C
   C20        1.0     0.179624     0.346677     0.668144    Uiso  ? C
   C20        1.0     0.179624     0.346677     0.811002    Uiso  ? C
   C20        1.0     0.179624     0.346677     0.953859    Uiso  ? C
   C20        1.0     0.179624     0.596677     0.096716    Uiso  ? C
   C20        1.0     0.179624     0.596677     0.239573    Uiso  ? C
   C20        1.0     0.179624     0.596677     0.382430    Uiso  ? C
   C20        1.0     0.179624     0.596677     0.525287    Uiso  ? C
   C20        1.0     0.179624     0.596677     0.668144    Uiso  ? C
   C20        1.0     0.179624     0.596677     0.811002    Uiso  ? C
   C20        1.0     0.179624     0.596677     0.953859    Uiso  ? C
   C20        1.0     0.179624     0.846677     0.096716    Uiso  ? C
   C20        1.0     0.179624     0.846677     0.239573    Uiso  ? C
   C20        1.0     0.179624     0.846677     0.382430    Uiso  ? C
   C20        1.0     0.179624     0.846677     0.525287    Uiso  ? C
   C20        1.0     0.179624     0.846677     0.668144    Uiso  ? C
   C20        1.0     0.179624     0.846677     0.811002    Uiso  ? C
   C20        1.0     0.179624     0.846677     0.953859    Uiso  ? C
   C20        1.0     0.512958     0.096677     0.096716    Uiso  ? C
   C20        1.0     0.512958     0.096677     0.239573    Uiso  ? C
   C20        1.0     0.512958     0.096677     0.382430    Uiso  ? C
   C20        1.0     0.512958     0.096677     0.525287    Uiso  ? C
   C20        1.0     0.512958     0.096677     0.668144    Uiso  ? C
   C20        1.0     0.512958     0.096677     0.811002    Uiso  ? C
   C20        1.0     0.512958     0.096677     0.953859    Uiso  ? C
   C20        1.0     0.512958     0.346677     0.096716    Uiso  ? C
   C20        1.0     0.512958     0.346677     0.239573    Uiso  ? C
   C20        1.0     0.512958     0.346677     0.382430    Uiso  ? C
   C20        1.0     0.512958     0.346677     0.525287    Uiso  ? C
   C20        1.0     0.512958     0.346677     0.668144    Uiso  ? C
   C20        1.0     0.512958     0.346677     0.811002    Uiso  ? C
   C20        1.0     0.512958     0.346677     0.953859    Uiso  ? C
   C20        1.0     0.512958     0.596677     0.096716    Uiso  ? C
   C20        1.0     0.512958     0.596677     0.239573    Uiso  ? C
   C20        1.0     0.512958     0.596677     0.382430    Uiso  ? C
   C20        1.0     0.512958     0.596677     0.525287    Uiso  ? C
   C20        1.0     0.512958     0.596677     0.668144    Uiso  ? C
   C20        1.0     0.512958     0.596677     0.811002    Uiso  ? C
   C20        1.0     0.512958     0.596677     0.953859    Uiso  ? C
   C20        1.0     0.512958     0.846677     0.096716    Uiso  ? C
   C20        1.0     0.512958     0.846677     0.239573    Uiso  ? C
   C20        1.0     0.512958     0.846677     0.382430    Uiso  ? C
   C20        1.0     0.512958     0.846677     0.525287    Uiso  ? C
   C20        1.0     0.512958     0.846677     0.668144    Uiso  ? C
   C20        1.0     0.512958     0.846677     0.811002    Uiso  ? C
   C20        1.0     0.512958     0.846677     0.953859    Uiso  ? C
   C20        1.0     0.846291     0.096677     0.096716    Uiso  ? C
   C20        1.0     0.846291     0.096677     0.239573    Uiso  ? C
   C20        1.0     0.846291     0.096677     0.382430    Uiso  ? C
   C20        1.0     0.846291     0.096677     0.525287    Uiso  ? C
   C20        1.0     0.846291     0.096677     0.668144    Uiso  ? C
   C20        1.0     0.846291     0.096677     0.811002    Uiso  ? C
   C20        1.0     0.846291     0.096677     0.953859    Uiso  ? C
   C20        1.0     0.846291     0.346677     0.096716    Uiso  ? C
   C20        1.0     0.846291     0.346677     0.239573    Uiso  ? C
   C20        1.0     0.846291     0.346677     0.382430    Uiso  ? C
   C20        1.0     0.846291     0.346677     0.525287    Uiso  ? C
   C20        1.0     0.846291     0.346677     0.668144    Uiso  ? C
   C20        1.0     0.846291     0.346677     0.811002    Uiso  ? C
   C20        1.0     0.846291     0.346677     0.953859    Uiso  ? C
   C20        1.0     0.846291     0.596677     0.096716    Uiso  ? C
   C20        1.0     0.846291     0.596677     0.239573    Uiso  ? C
   C20        1.0     0.846291     0.596677     0.382430    Uiso  ? C
   C20        1.0     0.846291     0.596677     0.525287    Uiso  ? C
   C20        1.0     0.846291     0.596677     0.668144    Uiso  ? C
   C20        1.0     0.846291     0.596677     0.811002    Uiso  ? C
   C20        1.0     0.846291     0.596677     0.953859    Uiso  ? C
   C20        1.0     0.846291     0.846677     0.096716    Uiso  ? C
   C20        1.0     0.846291     0.846677     0.239573    Uiso  ? C
   C20        1.0     0.846291     0.846677     0.382430    Uiso  ? C
   C20        1.0     0.846291     0.846677     0.525287    Uiso  ? C
   C20        1.0     0.846291     0.846677     0.668144    Uiso  ? C
   C20        1.0     0.846291     0.846677     0.811002    Uiso  ? C
   C20        1.0     0.846291     0.846677     0.953859    Uiso  ? C
   C21        1.0     0.192677     0.004259     0.094144    Uiso  ? C
   C21        1.0     0.192677     0.004259     0.237001    Uiso  ? C
   C21        1.0     0.192677     0.004259     0.379858    Uiso  ? C
   C21        1.0     0.192677     0.004259     0.522715    Uiso  ? C
   C21        1.0     0.192677     0.004259     0.665572    Uiso  ? C
   C21        1.0     0.192677     0.004259     0.808429    Uiso  ? C
   C21        1.0     0.192677     0.004259     0.951287    Uiso  ? C
   C21        1.0     0.192677     0.254259     0.094144    Uiso  ? C
   C21        1.0     0.192677     0.254259     0.237001    Uiso  ? C
   C21        1.0     0.192677     0.254259     0.379858    Uiso  ? C
   C21        1.0     0.192677     0.254259     0.522715    Uiso  ? C
   C21        1.0     0.192677     0.254259     0.665572    Uiso  ? C
   C21        1.0     0.192677     0.254259     0.808429    Uiso  ? C
   C21        1.0     0.192677     0.254259     0.951287    Uiso  ? C
   C21        1.0     0.192677     0.504259     0.094144    Uiso  ? C
   C21        1.0     0.192677     0.504259     0.237001    Uiso  ? C
   C21        1.0     0.192677     0.504259     0.379858    Uiso  ? C
   C21        1.0     0.192677     0.504259     0.522715    Uiso  ? C
   C21        1.0     0.192677     0.504259     0.665572    Uiso  ? C
   C21        1.0     0.192677     0.504259     0.808429    Uiso  ? C
   C21        1.0     0.192677     0.504259     0.951287    Uiso  ? C
   C21        1.0     0.192677     0.754259     0.094144    Uiso  ? C
   C21        1.0     0.192677     0.754259     0.237001    Uiso  ? C
   C21        1.0     0.192677     0.754259     0.379858    Uiso  ? C
   C21        1.0     0.192677     0.754259     0.522715    Uiso  ? C
   C21        1.0     0.192677     0.754259     0.665572    Uiso  ? C
   C21        1.0     0.192677     0.754259     0.808429    Uiso  ? C
   C21        1.0     0.192677     0.754259     0.951287    Uiso  ? C
   C21        1.0     0.526010     0.004259     0.094144    Uiso  ? C
   C21        1.0     0.526010     0.004259     0.237001    Uiso  ? C
   C21        1.0     0.526010     0.004259     0.379858    Uiso  ? C
   C21        1.0     0.526010     0.004259     0.522715    Uiso  ? C
   C21        1.0     0.526010     0.004259     0.665572    Uiso  ? C
   C21        1.0     0.526010     0.004259     0.808429    Uiso  ? C
   C21        1.0     0.526010     0.004259     0.951287    Uiso  ? C
   C21        1.0     0.526010     0.254259     0.094144    Uiso  ? C
   C21        1.0     0.526010     0.254259     0.237001    Uiso  ? C
   C21        1.0     0.526010     0.254259     0.379858    Uiso  ? C
   C21        1.0     0.526010     0.254259     0.522715    Uiso  ? C
   C21        1.0     0.526010     0.254259     0.665572    Uiso  ? C
   C21        1.0     0.526010     0.254259     0.808429    Uiso  ? C
   C21        1.0     0.526010     0.254259     0.951287    Uiso  ? C
   C21        1.0     0.526010     0.504259     0.094144    Uiso  ? C
   C21        1.0     0.526010     0.504259     0.237001    Uiso  ? C
   C21        1.0     0.526010     0.504259     0.379858    Uiso  ? C
   C21        1.0     0.526010     0.504259     0.522715    Uiso  ? C
   C21        1.0     0.526010     0.504259     0.665572    Uiso  ? C
   C21        1.0     0.526010     0.504259     0.808429    Uiso  ? C
   C21        1.0     0.526010     0.504259     0.951287    Uiso  ? C
   C21        1.0     0.526010     0.754259     0.094144    Uiso  ? C
   C21        1.0     0.526010     0.754259     0.237001    Uiso  ? C
   C21        1.0     0.526010     0.754259     0.379858    Uiso  ? C
   C21        1.0     0.526010     0.754259     0.522715    Uiso  ? C
   C21        1.0     0.526010     0.754259     0.665572    Uiso  ? C
   C21        1.0     0.526010     0.754259     0.808429    Uiso  ? C
   C21        1.0     0.526010     0.754259     0.951287    Uiso  ? C
   C21        1.0     0.859344     0.004259     0.094144    Uiso  ? C
   C21        1.0     0.859344     0.004259     0.237001    Uiso  ? C
   C21        1.0     0.859344     0.004259     0.379858    Uiso  ? C
   C21        1.0     0.859344     0.004259     0.522715    Uiso  ? C
   C21        1.0     0.859344     0.004259     0.665572    Uiso  ? C
   C21        1.0     0.859344     0.004259     0.808429    Uiso  ? C
   C21        1.0     0.859344     0.004259     0.951287    Uiso  ? C
   C21        1.0     0.859344     0.254259     0.094144    Uiso  ? C
   C21        1.0     0.859344     0.254259     0.237001    Uiso  ? C
   C21        1.0     0.859344     0.254259     0.379858    Uiso  ? C
   C21        1.0     0.859344     0.254259     0.522715    Uiso  ? C
   C21        1.0     0.859344     0.254259     0.665572    Uiso  ? C
   C21        1.0     0.859344     0.254259     0.808429    Uiso  ? C
   C21        1.0     0.859344     0.254259     0.951287    Uiso  ? C
   C21        1.0     0.859344     0.504259     0.094144    Uiso  ? C
   C21        1.0     0.859344     0.504259     0.237001    Uiso  ? C
   C21        1.0     0.859344     0.504259     0.379858    Uiso  ? C
   C21        1.0     0.859344     0.504259     0.522715    Uiso  ? C
   C21        1.0     0.859344     0.504259     0.665572    Uiso  ? C
   C21        1.0     0.859344     0.504259     0.808429    Uiso  ? C
   C21        1.0     0.859344     0.504259     0.951287    Uiso  ? C
   C21        1.0     0.859344     0.754259     0.094144    Uiso  ? C
   C21        1.0     0.859344     0.754259     0.237001    Uiso  ? C
   C21        1.0     0.859344     0.754259     0.379858    Uiso  ? C
   C21        1.0     0.859344     0.754259     0.522715    Uiso  ? C
   C21        1.0     0.859344     0.754259     0.665572    Uiso  ? C
   C21        1.0     0.859344     0.754259     0.808429    Uiso  ? C
   C21        1.0     0.859344     0.754259     0.951287    Uiso  ? C
   C22        1.0     0.194098     0.116932     0.092912    Uiso  ? C
   C22        1.0     0.194098     0.116932     0.235769    Uiso  ? C
   C22        1.0     0.194098     0.116932     0.378626    Uiso  ? C
   C22        1.0     0.194098     0.116932     0.521483    Uiso  ? C
   C22        1.0     0.194098     0.116932     0.664340    Uiso  ? C
   C22        1.0     0.194098     0.116932     0.807197    Uiso  ? C
   C22        1.0     0.194098     0.116932     0.950054    Uiso  ? C
   C22        1.0     0.194098     0.366932     0.092912    Uiso  ? C
   C22        1.0     0.194098     0.366932     0.235769    Uiso  ? C
   C22        1.0     0.194098     0.366932     0.378626    Uiso  ? C
   C22        1.0     0.194098     0.366932     0.521483    Uiso  ? C
   C22        1.0     0.194098     0.366932     0.664340    Uiso  ? C
   C22        1.0     0.194098     0.366932     0.807197    Uiso  ? C
   C22        1.0     0.194098     0.366932     0.950054    Uiso  ? C
   C22        1.0     0.194098     0.616932     0.092912    Uiso  ? C
   C22        1.0     0.194098     0.616932     0.235769    Uiso  ? C
   C22        1.0     0.194098     0.616932     0.378626    Uiso  ? C
   C22        1.0     0.194098     0.616932     0.521483    Uiso  ? C
   C22        1.0     0.194098     0.616932     0.664340    Uiso  ? C
   C22        1.0     0.194098     0.616932     0.807197    Uiso  ? C
   C22        1.0     0.194098     0.616932     0.950054    Uiso  ? C
   C22        1.0     0.194098     0.866932     0.092912    Uiso  ? C
   C22        1.0     0.194098     0.866932     0.235769    Uiso  ? C
   C22        1.0     0.194098     0.866932     0.378626    Uiso  ? C
   C22        1.0     0.194098     0.866932     0.521483    Uiso  ? C
   C22        1.0     0.194098     0.866932     0.664340    Uiso  ? C
   C22        1.0     0.194098     0.866932     0.807197    Uiso  ? C
   C22        1.0     0.194098     0.866932     0.950054    Uiso  ? C
   C22        1.0     0.527431     0.116932     0.092912    Uiso  ? C
   C22        1.0     0.527431     0.116932     0.235769    Uiso  ? C
   C22        1.0     0.527431     0.116932     0.378626    Uiso  ? C
   C22        1.0     0.527431     0.116932     0.521483    Uiso  ? C
   C22        1.0     0.527431     0.116932     0.664340    Uiso  ? C
   C22        1.0     0.527431     0.116932     0.807197    Uiso  ? C
   C22        1.0     0.527431     0.116932     0.950054    Uiso  ? C
   C22        1.0     0.527431     0.366932     0.092912    Uiso  ? C
   C22        1.0     0.527431     0.366932     0.235769    Uiso  ? C
   C22        1.0     0.527431     0.366932     0.378626    Uiso  ? C
   C22        1.0     0.527431     0.366932     0.521483    Uiso  ? C
   C22        1.0     0.527431     0.366932     0.664340    Uiso  ? C
   C22        1.0     0.527431     0.366932     0.807197    Uiso  ? C
   C22        1.0     0.527431     0.366932     0.950054    Uiso  ? C
   C22        1.0     0.527431     0.616932     0.092912    Uiso  ? C
   C22        1.0     0.527431     0.616932     0.235769    Uiso  ? C
   C22        1.0     0.527431     0.616932     0.378626    Uiso  ? C
   C22        1.0     0.527431     0.616932     0.521483    Uiso  ? C
   C22        1.0     0.527431     0.616932     0.664340    Uiso  ? C
   C22        1.0     0.527431     0.616932     0.807197    Uiso  ? C
   C22        1.0     0.527431     0.616932     0.950054    Uiso  ? C
   C22        1.0     0.527431     0.866932     0.092912    Uiso  ? C
   C22        1.0     0.527431     0.866932     0.235769    Uiso  ? C
   C22        1.0     0.527431     0.866932     0.378626    Uiso  ? C
   C22        1.0     0.527431     0.866932     0.521483    Uiso  ? C
   C22        1.0     0.527431     0.866932     0.664340    Uiso  ? C
   C22        1.0     0.527431     0.866932     0.807197    Uiso  ? C
   C22        1.0     0.527431     0.866932     0.950054    Uiso  ? C
   C22        1.0     0.860764     0.116932     0.092912    Uiso  ? C
   C22        1.0     0.860764     0.116932     0.235769    Uiso  ? C
   C22        1.0     0.860764     0.116932     0.378626    Uiso  ? C
   C22        1.0     0.860764     0.116932     0.521483    Uiso  ? C
   C22        1.0     0.860764     0.116932     0.664340    Uiso  ? C
   C22        1.0     0.860764     0.116932     0.807197    Uiso  ? C
   C22        1.0     0.860764     0.116932     0.950054    Uiso  ? C
   C22        1.0     0.860764     0.366932     0.092912    Uiso  ? C
   C22        1.0     0.860764     0.366932     0.235769    Uiso  ? C
   C22        1.0     0.860764     0.366932     0.378626    Uiso  ? C
   C22        1.0     0.860764     0.366932     0.521483    Uiso  ? C
   C22        1.0     0.860764     0.366932     0.664340    Uiso  ? C
   C22        1.0     0.860764     0.366932     0.807197    Uiso  ? C
   C22        1.0     0.860764     0.366932     0.950054    Uiso  ? C
   C22        1.0     0.860764     0.616932     0.092912    Uiso  ? C
   C22        1.0     0.860764     0.616932     0.235769    Uiso  ? C
   C22        1.0     0.860764     0.616932     0.378626    Uiso  ? C
   C22        1.0     0.860764     0.616932     0.521483    Uiso  ? C
   C22        1.0     0.860764     0.616932     0.664340    Uiso  ? C
   C22        1.0     0.860764     0.616932     0.807197    Uiso  ? C
   C22        1.0     0.860764     0.616932     0.950054    Uiso  ? C
   C22        1.0     0.860764     0.866932     0.092912    Uiso  ? C
   C22        1.0     0.860764     0.866932     0.235769    Uiso  ? C
   C22        1.0     0.860764     0.866932     0.378626    Uiso  ? C
   C22        1.0     0.860764     0.866932     0.521483    Uiso  ? C
   C22        1.0     0.860764     0.866932     0.664340    Uiso  ? C
   C22        1.0     0.860764     0.866932     0.807197    Uiso  ? C
   C22        1.0     0.860764     0.866932     0.950054    Uiso  ? C
   C23        1.0     0.009125     0.215928     0.089350    Uiso  ? C
   C23        1.0     0.009125     0.215928     0.232207    Uiso  ? C
   C23        1.0     0.009125     0.215928     0.375064    Uiso  ? C
   C23        1.0     0.009125     0.215928     0.517921    Uiso  ? C
   C23        1.0     0.009125     0.215928     0.660779    Uiso  ? C
   C23        1.0     0.009125     0.215928     0.803636    Uiso  ? C
   C23        1.0     0.009125     0.215928     0.946493    Uiso  ? C
   C23        1.0     0.009125     0.465928     0.089350    Uiso  ? C
   C23        1.0     0.009125     0.465928     0.232207    Uiso  ? C
   C23        1.0     0.009125     0.465928     0.375064    Uiso  ? C
   C23        1.0     0.009125     0.465928     0.517921    Uiso  ? C
   C23        1.0     0.009125     0.465928     0.660779    Uiso  ? C
   C23        1.0     0.009125     0.465928     0.803636    Uiso  ? C
   C23        1.0     0.009125     0.465928     0.946493    Uiso  ? C
   C23        1.0     0.009125     0.715928     0.089350    Uiso  ? C
   C23        1.0     0.009125     0.715928     0.232207    Uiso  ? C
   C23        1.0     0.009125     0.715928     0.375064    Uiso  ? C
   C23        1.0     0.009125     0.715928     0.517921    Uiso  ? C
   C23        1.0     0.009125     0.715928     0.660779    Uiso  ? C
   C23        1.0     0.009125     0.715928     0.803636    Uiso  ? C
   C23        1.0     0.009125     0.715928     0.946493    Uiso  ? C
   C23        1.0     0.009125     0.965928     0.089350    Uiso  ? C
   C23        1.0     0.009125     0.965928     0.232207    Uiso  ? C
   C23        1.0     0.009125     0.965928     0.375064    Uiso  ? C
   C23        1.0     0.009125     0.965928     0.517921    Uiso  ? C
   C23        1.0     0.009125     0.965928     0.660779    Uiso  ? C
   C23        1.0     0.009125     0.965928     0.803636    Uiso  ? C
   C23        1.0     0.009125     0.965928     0.946493    Uiso  ? C
   C23        1.0     0.342459     0.215928     0.089350    Uiso  ? C
   C23        1.0     0.342459     0.215928     0.232207    Uiso  ? C
   C23        1.0     0.342459     0.215928     0.375064    Uiso  ? C
   C23        1.0     0.342459     0.215928     0.517921    Uiso  ? C
   C23        1.0     0.342459     0.215928     0.660779    Uiso  ? C
   C23        1.0     0.342459     0.215928     0.803636    Uiso  ? C
   C23        1.0     0.342459     0.215928     0.946493    Uiso  ? C
   C23        1.0     0.342459     0.465928     0.089350    Uiso  ? C
   C23        1.0     0.342459     0.465928     0.232207    Uiso  ? C
   C23        1.0     0.342459     0.465928     0.375064    Uiso  ? C
   C23        1.0     0.342459     0.465928     0.517921    Uiso  ? C
   C23        1.0     0.342459     0.465928     0.660779    Uiso  ? C
   C23        1.0     0.342459     0.465928     0.803636    Uiso  ? C
   C23        1.0     0.342459     0.465928     0.946493    Uiso  ? C
   C23        1.0     0.342459     0.715928     0.089350    Uiso  ? C
   C23        1.0     0.342459     0.715928     0.232207    Uiso  ? C
   C23        1.0     0.342459     0.715928     0.375064    Uiso  ? C
   C23        1.0     0.342459     0.715928     0.517921    Uiso  ? C
   C23        1.0     0.342459     0.715928     0.660779    Uiso  ? C
   C23        1.0     0.342459     0.715928     0.803636    Uiso  ? C
   C23        1.0     0.342459     0.715928     0.946493    Uiso  ? C
   C23        1.0     0.342459     0.965928     0.089350    Uiso  ? C
   C23        1.0     0.342459     0.965928     0.232207    Uiso  ? C
   C23        1.0     0.342459     0.965928     0.375064    Uiso  ? C
   C23        1.0     0.342459     0.965928     0.517921    Uiso  ? C
   C23        1.0     0.342459     0.965928     0.660779    Uiso  ? C
   C23        1.0     0.342459     0.965928     0.803636    Uiso  ? C
   C23        1.0     0.342459     0.965928     0.946493    Uiso  ? C
   C23        1.0     0.675792     0.215928     0.089350    Uiso  ? C
   C23        1.0     0.675792     0.215928     0.232207    Uiso  ? C
   C23        1.0     0.675792     0.215928     0.375064    Uiso  ? C
   C23        1.0     0.675792     0.215928     0.517921    Uiso  ? C
   C23        1.0     0.675792     0.215928     0.660779    Uiso  ? C
   C23        1.0     0.675792     0.215928     0.803636    Uiso  ? C
   C23        1.0     0.675792     0.215928     0.946493    Uiso  ? C
   C23        1.0     0.675792     0.465928     0.089350    Uiso  ? C
   C23        1.0     0.675792     0.465928     0.232207    Uiso  ? C
   C23        1.0     0.675792     0.465928     0.375064    Uiso  ? C
   C23        1.0     0.675792     0.465928     0.517921    Uiso  ? C
   C23        1.0     0.675792     0.465928     0.660779    Uiso  ? C
   C23        1.0     0.675792     0.465928     0.803636    Uiso  ? C
   C23        1.0     0.675792     0.465928     0.946493    Uiso  ? C
   C23        1.0     0.675792     0.715928     0.089350    Uiso  ? C
   C23        1.0     0.675792     0.715928     0.232207    Uiso  ? C
   C23        1.0     0.675792     0.715928     0.375064    Uiso  ? C
   C23        1.0     0.675792     0.715928     0.517921    Uiso  ? C
   C23        1.0     0.675792     0.715928     0.660779    Uiso  ? C
   C23        1.0     0.675792     0.715928     0.803636    Uiso  ? C
   C23        1.0     0.675792     0.715928     0.946493    Uiso  ? C
   C23        1.0     0.675792     0.965928     0.089350    Uiso  ? C
   C23        1.0     0.675792     0.965928     0.232207    Uiso  ? C
   C23        1.0     0.675792     0.965928     0.375064    Uiso  ? C
   C23        1.0     0.675792     0.965928     0.517921    Uiso  ? C
   C23        1.0     0.675792     0.965928     0.660779    Uiso  ? C
   C23        1.0     0.675792     0.965928     0.803636    Uiso  ? C
   C23        1.0     0.675792     0.965928     0.946493    Uiso  ? C
   C24        1.0     0.008828     0.162500     0.089209    Uiso  ? C
   C24        1.0     0.008828     0.162500     0.232066    Uiso  ? C
   C24        1.0     0.008828     0.162500     0.374923    Uiso  ? C
   C24        1.0     0.008828     0.162500     0.517780    Uiso  ? C
   C24        1.0     0.008828     0.162500     0.660637    Uiso  ? C
   C24        1.0     0.008828     0.162500     0.803494    Uiso  ? C
   C24        1.0     0.008828     0.162500     0.946352    Uiso  ? C
   C24        1.0     0.008828     0.412500     0.089209    Uiso  ? C
   C24        1.0     0.008828     0.412500     0.232066    Uiso  ? C
   C24        1.0     0.008828     0.412500     0.374923    Uiso  ? C
   C24        1.0     0.008828     0.412500     0.517780    Uiso  ? C
   C24        1.0     0.008828     0.412500     0.660637    Uiso  ? C
   C24        1.0     0.008828     0.412500     0.803494    Uiso  ? C
   C24        1.0     0.008828     0.412500     0.946352    Uiso  ? C
   C24        1.0     0.008828     0.662500     0.089209    Uiso  ? C
   C24        1.0     0.008828     0.662500     0.232066    Uiso  ? C
   C24        1.0     0.008828     0.662500     0.374923    Uiso  ? C
   C24        1.0     0.008828     0.662500     0.517780    Uiso  ? C
   C24        1.0     0.008828     0.662500     0.660637    Uiso  ? C
   C24        1.0     0.008828     0.662500     0.803494    Uiso  ? C
   C24        1.0     0.008828     0.662500     0.946352    Uiso  ? C
   C24        1.0     0.008828     0.912500     0.089209    Uiso  ? C
   C24        1.0     0.008828     0.912500     0.232066    Uiso  ? C
   C24        1.0     0.008828     0.912500     0.374923    Uiso  ? C
   C24        1.0     0.008828     0.912500     0.517780    Uiso  ? C
   C24        1.0     0.008828     0.912500     0.660637    Uiso  ? C
   C24        1.0     0.008828     0.912500     0.803494    Uiso  ? C
   C24        1.0     0.008828     0.912500     0.946352    Uiso  ? C
   C24        1.0     0.342161     0.162500     0.089209    Uiso  ? C
   C24        1.0     0.342161     0.162500     0.232066    Uiso  ? C
   C24        1.0     0.342161     0.162500     0.374923    Uiso  ? C
   C24        1.0     0.342161     0.162500     0.517780    Uiso  ? C
   C24        1.0     0.342161     0.162500     0.660637    Uiso  ? C
   C24        1.0     0.342161     0.162500     0.803494    Uiso  ? C
   C24        1.0     0.342161     0.162500     0.946352    Uiso  ? C
   C24        1.0     0.342161     0.412500     0.089209    Uiso  ? C
   C24        1.0     0.342161     0.412500     0.232066    Uiso  ? C
   C24        1.0     0.342161     0.412500     0.374923    Uiso  ? C
   C24        1.0     0.342161     0.412500     0.517780    Uiso  ? C
   C24        1.0     0.342161     0.412500     0.660637    Uiso  ? C
   C24        1.0     0.342161     0.412500     0.803494    Uiso  ? C
   C24        1.0     0.342161     0.412500     0.946352    Uiso  ? C
   C24        1.0     0.342161     0.662500     0.089209    Uiso  ? C
   C24        1.0     0.342161     0.662500     0.232066    Uiso  ? C
   C24        1.0     0.342161     0.662500     0.374923    Uiso  ? C
   C24        1.0     0.342161     0.662500     0.517780    Uiso  ? C
   C24        1.0     0.342161     0.662500     0.660637    Uiso  ? C
   C24        1.0     0.342161     0.662500     0.803494    Uiso  ? C
   C24        1.0     0.342161     0.662500     0.946352    Uiso  ? C
   C24        1.0     0.342161     0.912500     0.089209    Uiso  ? C
   C24        1.0     0.342161     0.912500     0.232066    Uiso  ? C
   C24        1.0     0.342161     0.912500     0.374923    Uiso  ? C
   C24        1.0     0.342161     0.912500     0.517780    Uiso  ? C
   C24        1.0     0.342161     0.912500     0.660637    Uiso  ? C
   C24        1.0     0.342161     0.912500     0.803494    Uiso  ? C
   C24        1.0     0.342161     0.912500     0.946352    Uiso  ? C
   C24        1.0     0.675495     0.162500     0.089209    Uiso  ? C
   C24        1.0     0.675495     0.162500     0.232066    Uiso  ? C
   C24        1.0     0.675495     0.162500     0.374923    Uiso  ? C
   C24        1.0     0.675495     0.162500     0.517780    Uiso  ? C
   C24        1.0     0.675495     0.162500     0.660637    Uiso  ? C
   C24        1.0     0.675495     0.162500     0.803494    Uiso  ? C
   C24        1.0     0.675495     0.162500     0.946352    Uiso  ? C
   C24        1.0     0.675495     0.412500     0.089209    Uiso  ? C
   C24        1.0     0.675495     0.412500     0.232066    Uiso  ? C
   C24        1.0     0.675495     0.412500     0.374923    Uiso  ? C
   C24        1.0     0.675495     0.412500     0.517780    Uiso  ? C
   C24        1.0     0.675495     0.412500     0.660637    Uiso  ? C
   C24        1.0     0.675495     0.412500     0.803494    Uiso  ? C
   C24        1.0     0.675495     0.412500     0.946352    Uiso  ? C
   C24        1.0     0.675495     0.662500     0.089209    Uiso  ? C
   C24        1.0     0.675495     0.662500     0.232066    Uiso  ? C
   C24        1.0     0.675495     0.662500     0.374923    Uiso  ? C
   C24        1.0     0.675495     0.662500     0.517780    Uiso  ? C
   C24        1.0     0.675495     0.662500     0.660637    Uiso  ? C
   C24        1.0     0.675495     0.662500     0.803494    Uiso  ? C
   C24        1.0     0.675495     0.662500     0.946352    Uiso  ? C
   C24        1.0     0.675495     0.912500     0.089209    Uiso  ? C
   C24        1.0     0.675495     0.912500     0.232066    Uiso  ? C
   C24        1.0     0.675495     0.912500     0.374923    Uiso  ? C
   C24        1.0     0.675495     0.912500     0.517780    Uiso  ? C
   C24        1.0     0.675495     0.912500     0.660637    Uiso  ? C
   C24        1.0     0.675495     0.912500     0.803494    Uiso  ? C
   C24        1.0     0.675495     0.912500     0.946352    Uiso  ? C
   C25        1.0     0.035718     0.133644     0.071867    Uiso  ? C
   C25        1.0     0.035718     0.133644     0.214724    Uiso  ? C
   C25        1.0     0.035718     0.133644     0.357581    Uiso  ? C
   C25        1.0     0.035718     0.133644     0.500439    Uiso  ? C
   C25        1.0     0.035718     0.133644     0.643296    Uiso  ? C
   C25        1.0     0.035718     0.133644     0.786153    Uiso  ? C
   C25        1.0     0.035718     0.133644     0.929010    Uiso  ? C
   C25        1.0     0.035718     0.383644     0.071867    Uiso  ? C
   C25        1.0     0.035718     0.383644     0.214724    Uiso  ? C
   C25        1.0     0.035718     0.383644     0.357581    Uiso  ? C
   C25        1.0     0.035718     0.383644     0.500439    Uiso  ? C
   C25        1.0     0.035718     0.383644     0.643296    Uiso  ? C
   C25        1.0     0.035718     0.383644     0.786153    Uiso  ? C
   C25        1.0     0.035718     0.383644     0.929010    Uiso  ? C
   C25        1.0     0.035718     0.633644     0.071867    Uiso  ? C
   C25        1.0     0.035718     0.633644     0.214724    Uiso  ? C
   C25        1.0     0.035718     0.633644     0.357581    Uiso  ? C
   C25        1.0     0.035718     0.633644     0.500439    Uiso  ? C
   C25        1.0     0.035718     0.633644     0.643296    Uiso  ? C
   C25        1.0     0.035718     0.633644     0.786153    Uiso  ? C
   C25        1.0     0.035718     0.633644     0.929010    Uiso  ? C
   C25        1.0     0.035718     0.883644     0.071867    Uiso  ? C
   C25        1.0     0.035718     0.883644     0.214724    Uiso  ? C
   C25        1.0     0.035718     0.883644     0.357581    Uiso  ? C
   C25        1.0     0.035718     0.883644     0.500439    Uiso  ? C
   C25        1.0     0.035718     0.883644     0.643296    Uiso  ? C
   C25        1.0     0.035718     0.883644     0.786153    Uiso  ? C
   C25        1.0     0.035718     0.883644     0.929010    Uiso  ? C
   C25        1.0     0.369052     0.133644     0.071867    Uiso  ? C
   C25        1.0     0.369052     0.133644     0.214724    Uiso  ? C
   C25        1.0     0.369052     0.133644     0.357581    Uiso  ? C
   C25        1.0     0.369052     0.133644     0.500439    Uiso  ? C
   C25        1.0     0.369052     0.133644     0.643296    Uiso  ? C
   C25        1.0     0.369052     0.133644     0.786153    Uiso  ? C
   C25        1.0     0.369052     0.133644     0.929010    Uiso  ? C
   C25        1.0     0.369052     0.383644     0.071867    Uiso  ? C
   C25        1.0     0.369052     0.383644     0.214724    Uiso  ? C
   C25        1.0     0.369052     0.383644     0.357581    Uiso  ? C
   C25        1.0     0.369052     0.383644     0.500439    Uiso  ? C
   C25        1.0     0.369052     0.383644     0.643296    Uiso  ? C
   C25        1.0     0.369052     0.383644     0.786153    Uiso  ? C
   C25        1.0     0.369052     0.383644     0.929010    Uiso  ? C
   C25        1.0     0.369052     0.633644     0.071867    Uiso  ? C
   C25        1.0     0.369052     0.633644     0.214724    Uiso  ? C
   C25        1.0     0.369052     0.633644     0.357581    Uiso  ? C
   C25        1.0     0.369052     0.633644     0.500439    Uiso  ? C
   C25        1.0     0.369052     0.633644     0.643296    Uiso  ? C
   C25        1.0     0.369052     0.633644     0.786153    Uiso  ? C
   C25        1.0     0.369052     0.633644     0.929010    Uiso  ? C
   C25        1.0     0.369052     0.883644     0.071867    Uiso  ? C
   C25        1.0     0.369052     0.883644     0.214724    Uiso  ? C
   C25        1.0     0.369052     0.883644     0.357581    Uiso  ? C
   C25        1.0     0.369052     0.883644     0.500439    Uiso  ? C
   C25        1.0     0.369052     0.883644     0.643296    Uiso  ? C
   C25        1.0     0.369052     0.883644     0.786153    Uiso  ? C
   C25        1.0     0.369052     0.883644     0.929010    Uiso  ? C
   C25        1.0     0.702385     0.133644     0.071867    Uiso  ? C
   C25        1.0     0.702385     0.133644     0.214724    Uiso  ? C
   C25        1.0     0.702385     0.133644     0.357581    Uiso  ? C
   C25        1.0     0.702385     0.133644     0.500439    Uiso  ? C
   C25        1.0     0.702385     0.133644     0.643296    Uiso  ? C
   C25        1.0     0.702385     0.133644     0.786153    Uiso  ? C
   C25        1.0     0.702385     0.133644     0.929010    Uiso  ? C
   C25        1.0     0.702385     0.383644     0.071867    Uiso  ? C
   C25        1.0     0.702385     0.383644     0.214724    Uiso  ? C
   C25        1.0     0.702385     0.383644     0.357581    Uiso  ? C
   C25        1.0     0.702385     0.383644     0.500439    Uiso  ? C
   C25        1.0     0.702385     0.383644     0.643296    Uiso  ? C
   C25        1.0     0.702385     0.383644     0.786153    Uiso  ? C
   C25        1.0     0.702385     0.383644     0.929010    Uiso  ? C
   C25        1.0     0.702385     0.633644     0.071867    Uiso  ? C
   C25        1.0     0.702385     0.633644     0.214724    Uiso  ? C
   C25        1.0     0.702385     0.633644     0.357581    Uiso  ? C
   C25        1.0     0.702385     0.633644     0.500439    Uiso  ? C
   C25        1.0     0.702385     0.633644     0.643296    Uiso  ? C
   C25        1.0     0.702385     0.633644     0.786153    Uiso  ? C
   C25        1.0     0.702385     0.633644     0.929010    Uiso  ? C
   C25        1.0     0.702385     0.883644     0.071867    Uiso  ? C
   C25        1.0     0.702385     0.883644     0.214724    Uiso  ? C
   C25        1.0     0.702385     0.883644     0.357581    Uiso  ? C
   C25        1.0     0.702385     0.883644     0.500439    Uiso  ? C
   C25        1.0     0.702385     0.883644     0.643296    Uiso  ? C
   C25        1.0     0.702385     0.883644     0.786153    Uiso  ? C
   C25        1.0     0.702385     0.883644     0.929010    Uiso  ? C
   C26        1.0     0.033924     0.247023     0.071519    Uiso  ? C
   C26        1.0     0.033924     0.247023     0.214376    Uiso  ? C
   C26        1.0     0.033924     0.247023     0.357233    Uiso  ? C
   C26        1.0     0.033924     0.247023     0.500090    Uiso  ? C
   C26        1.0     0.033924     0.247023     0.642947    Uiso  ? C
   C26        1.0     0.033924     0.247023     0.785804    Uiso  ? C
   C26        1.0     0.033924     0.247023     0.928662    Uiso  ? C
   C26        1.0     0.033924     0.497023     0.071519    Uiso  ? C
   C26        1.0     0.033924     0.497023     0.214376    Uiso  ? C
   C26        1.0     0.033924     0.497023     0.357233    Uiso  ? C
   C26        1.0     0.033924     0.497023     0.500090    Uiso  ? C
   C26        1.0     0.033924     0.497023     0.642947    Uiso  ? C
   C26        1.0     0.033924     0.497023     0.785804    Uiso  ? C
   C26        1.0     0.033924     0.497023     0.928662    Uiso  ? C
   C26        1.0     0.033924     0.747023     0.071519    Uiso  ? C
   C26        1.0     0.033924     0.747023     0.214376    Uiso  ? C
   C26        1.0     0.033924     0.747023     0.357233    Uiso  ? C
   C26        1.0     0.033924     0.747023     0.500090    Uiso  ? C
   C26        1.0     0.033924     0.747023     0.642947    Uiso  ? C
   C26        1.0     0.033924     0.747023     0.785804    Uiso  ? C
   C26        1.0     0.033924     0.747023     0.928662    Uiso  ? C
   C26        1.0     0.033924     0.997023     0.071519    Uiso  ? C
   C26        1.0     0.033924     0.997023     0.214376    Uiso  ? C
   C26        1.0     0.033924     0.997023     0.357233    Uiso  ? C
   C26        1.0     0.033924     0.997023     0.500090    Uiso  ? C
   C26        1.0     0.033924     0.997023     0.642947    Uiso  ? C
   C26        1.0     0.033924     0.997023     0.785804    Uiso  ? C
   C26        1.0     0.033924     0.997023     0.928662    Uiso  ? C
   C26        1.0     0.367258     0.247023     0.071519    Uiso  ? C
   C26        1.0     0.367258     0.247023     0.214376    Uiso  ? C
   C26        1.0     0.367258     0.247023     0.357233    Uiso  ? C
   C26        1.0     0.367258     0.247023     0.500090    Uiso  ? C
   C26        1.0     0.367258     0.247023     0.642947    Uiso  ? C
   C26        1.0     0.367258     0.247023     0.785804    Uiso  ? C
   C26        1.0     0.367258     0.247023     0.928662    Uiso  ? C
   C26        1.0     0.367258     0.497023     0.071519    Uiso  ? C
   C26        1.0     0.367258     0.497023     0.214376    Uiso  ? C
   C26        1.0     0.367258     0.497023     0.357233    Uiso  ? C
   C26        1.0     0.367258     0.497023     0.500090    Uiso  ? C
   C26        1.0     0.367258     0.497023     0.642947    Uiso  ? C
   C26        1.0     0.367258     0.497023     0.785804    Uiso  ? C
   C26        1.0     0.367258     0.497023     0.928662    Uiso  ? C
   C26        1.0     0.367258     0.747023     0.071519    Uiso  ? C
   C26        1.0     0.367258     0.747023     0.214376    Uiso  ? C
   C26        1.0     0.367258     0.747023     0.357233    Uiso  ? C
   C26        1.0     0.367258     0.747023     0.500090    Uiso  ? C
   C26        1.0     0.367258     0.747023     0.642947    Uiso  ? C
   C26        1.0     0.367258     0.747023     0.785804    Uiso  ? C
   C26        1.0     0.367258     0.747023     0.928662    Uiso  ? C
   C26        1.0     0.367258     0.997023     0.071519    Uiso  ? C
   C26        1.0     0.367258     0.997023     0.214376    Uiso  ? C
   C26        1.0     0.367258     0.997023     0.357233    Uiso  ? C
   C26        1.0     0.367258     0.997023     0.500090    Uiso  ? C
   C26        1.0     0.367258     0.997023     0.642947    Uiso  ? C
   C26        1.0     0.367258     0.997023     0.785804    Uiso  ? C
   C26        1.0     0.367258     0.997023     0.928662    Uiso  ? C
   C26        1.0     0.700591     0.247023     0.071519    Uiso  ? C
   C26        1.0     0.700591     0.247023     0.214376    Uiso  ? C
   C26        1.0     0.700591     0.247023     0.357233    Uiso  ? C
   C26        1.0     0.700591     0.247023     0.500090    Uiso  ? C
   C26        1.0     0.700591     0.247023     0.642947    Uiso  ? C
   C26        1.0     0.700591     0.247023     0.785804    Uiso  ? C
   C26        1.0     0.700591     0.247023     0.928662    Uiso  ? C
   C26        1.0     0.700591     0.497023     0.071519    Uiso  ? C
   C26        1.0     0.700591     0.497023     0.214376    Uiso  ? C
   C26        1.0     0.700591     0.497023     0.357233    Uiso  ? C
   C26        1.0     0.700591     0.497023     0.500090    Uiso  ? C
   C26        1.0     0.700591     0.497023     0.642947    Uiso  ? C
   C26        1.0     0.700591     0.497023     0.785804    Uiso  ? C
   C26        1.0     0.700591     0.497023     0.928662    Uiso  ? C
   C26        1.0     0.700591     0.747023     0.071519    Uiso  ? C
   C26        1.0     0.700591     0.747023     0.214376    Uiso  ? C
   C26        1.0     0.700591     0.747023     0.357233    Uiso  ? C
   C26        1.0     0.700591     0.747023     0.500090    Uiso  ? C
   C26        1.0     0.700591     0.747023     0.642947    Uiso  ? C
   C26        1.0     0.700591     0.747023     0.785804    Uiso  ? C
   C26        1.0     0.700591     0.747023     0.928662    Uiso  ? C
   C26        1.0     0.700591     0.997023     0.071519    Uiso  ? C
   C26        1.0     0.700591     0.997023     0.214376    Uiso  ? C
   C26        1.0     0.700591     0.997023     0.357233    Uiso  ? C
   C26        1.0     0.700591     0.997023     0.500090    Uiso  ? C
   C26        1.0     0.700591     0.997023     0.642947    Uiso  ? C
   C26        1.0     0.700591     0.997023     0.785804    Uiso  ? C
   C26        1.0     0.700591     0.997023     0.928662    Uiso  ? C
   C27        1.0     0.309616     0.026287     0.072950    Uiso  ? C
   C27        1.0     0.309616     0.026287     0.215807    Uiso  ? C
   C27        1.0     0.309616     0.026287     0.358664    Uiso  ? C
   C27        1.0     0.309616     0.026287     0.501522    Uiso  ? C
   C27        1.0     0.309616     0.026287     0.644379    Uiso  ? C
   C27        1.0     0.309616     0.026287     0.787236    Uiso  ? C
   C27        1.0     0.309616     0.026287     0.930093    Uiso  ? C
   C27        1.0     0.309616     0.276287     0.072950    Uiso  ? C
   C27        1.0     0.309616     0.276287     0.215807    Uiso  ? C
   C27        1.0     0.309616     0.276287     0.358664    Uiso  ? C
   C27        1.0     0.309616     0.276287     0.501522    Uiso  ? C
   C27        1.0     0.309616     0.276287     0.644379    Uiso  ? C
   C27        1.0     0.309616     0.276287     0.787236    Uiso  ? C
   C27        1.0     0.309616     0.276287     0.930093    Uiso  ? C
   C27        1.0     0.309616     0.526287     0.072950    Uiso  ? C
   C27        1.0     0.309616     0.526287     0.215807    Uiso  ? C
   C27        1.0     0.309616     0.526287     0.358664    Uiso  ? C
   C27        1.0     0.309616     0.526287     0.501522    Uiso  ? C
   C27        1.0     0.309616     0.526287     0.644379    Uiso  ? C
   C27        1.0     0.309616     0.526287     0.787236    Uiso  ? C
   C27        1.0     0.309616     0.526287     0.930093    Uiso  ? C
   C27        1.0     0.309616     0.776287     0.072950    Uiso  ? C
   C27        1.0     0.309616     0.776287     0.215807    Uiso  ? C
   C27        1.0     0.309616     0.776287     0.358664    Uiso  ? C
   C27        1.0     0.309616     0.776287     0.501522    Uiso  ? C
   C27        1.0     0.309616     0.776287     0.644379    Uiso  ? C
   C27        1.0     0.309616     0.776287     0.787236    Uiso  ? C
   C27        1.0     0.309616     0.776287     0.930093    Uiso  ? C
   C27        1.0     0.642949     0.026287     0.072950    Uiso  ? C
   C27        1.0     0.642949     0.026287     0.215807    Uiso  ? C
   C27        1.0     0.642949     0.026287     0.358664    Uiso  ? C
   C27        1.0     0.642949     0.026287     0.501522    Uiso  ? C
   C27        1.0     0.642949     0.026287     0.644379    Uiso  ? C
   C27        1.0     0.642949     0.026287     0.787236    Uiso  ? C
   C27        1.0     0.642949     0.026287     0.930093    Uiso  ? C
   C27        1.0     0.642949     0.276287     0.072950    Uiso  ? C
   C27        1.0     0.642949     0.276287     0.215807    Uiso  ? C
   C27        1.0     0.642949     0.276287     0.358664    Uiso  ? C
   C27        1.0     0.642949     0.276287     0.501522    Uiso  ? C
   C27        1.0     0.642949     0.276287     0.644379    Uiso  ? C
   C27        1.0     0.642949     0.276287     0.787236    Uiso  ? C
   C27        1.0     0.642949     0.276287     0.930093    Uiso  ? C
   C27        1.0     0.642949     0.526287     0.072950    Uiso  ? C
   C27        1.0     0.642949     0.526287     0.215807    Uiso  ? C
   C27        1.0     0.642949     0.526287     0.358664    Uiso  ? C
   C27        1.0     0.642949     0.526287     0.501522    Uiso  ? C
   C27        1.0     0.642949     0.526287     0.644379    Uiso  ? C
   C27        1.0     0.642949     0.526287     0.787236    Uiso  ? C
   C27        1.0     0.642949     0.526287     0.930093    Uiso  ? C
   C27        1.0     0.642949     0.776287     0.072950    Uiso  ? C
   C27        1.0     0.642949     0.776287     0.215807    Uiso  ? C
   C27        1.0     0.642949     0.776287     0.358664    Uiso  ? C
   C27        1.0     0.642949     0.776287     0.501522    Uiso  ? C
   C27        1.0     0.642949     0.776287     0.644379    Uiso  ? C
   C27        1.0     0.642949     0.776287     0.787236    Uiso  ? C
   C27        1.0     0.642949     0.776287     0.930093    Uiso  ? C
   C27        1.0     0.976283     0.026287     0.072950    Uiso  ? C
   C27        1.0     0.976283     0.026287     0.215807    Uiso  ? C
   C27        1.0     0.976283     0.026287     0.358664    Uiso  ? C
   C27        1.0     0.976283     0.026287     0.501522    Uiso  ? C
   C27        1.0     0.976283     0.026287     0.644379    Uiso  ? C
   C27        1.0     0.976283     0.026287     0.787236    Uiso  ? C
   C27        1.0     0.976283     0.026287     0.930093    Uiso  ? C
   C27        1.0     0.976283     0.276287     0.072950    Uiso  ? C
   C27        1.0     0.976283     0.276287     0.215807    Uiso  ? C
   C27        1.0     0.976283     0.276287     0.358664    Uiso  ? C
   C27        1.0     0.976283     0.276287     0.501522    Uiso  ? C
   C27        1.0     0.976283     0.276287     0.644379    Uiso  ? C
   C27        1.0     0.976283     0.276287     0.787236    Uiso  ? C
   C27        1.0     0.976283     0.276287     0.930093    Uiso  ? C
   C27        1.0     0.976283     0.526287     0.072950    Uiso  ? C
   C27        1.0     0.976283     0.526287     0.215807    Uiso  ? C
   C27        1.0     0.976283     0.526287     0.358664    Uiso  ? C
   C27        1.0     0.976283     0.526287     0.501522    Uiso  ? C
   C27        1.0     0.976283     0.526287     0.644379    Uiso  ? C
   C27        1.0     0.976283     0.526287     0.787236    Uiso  ? C
   C27        1.0     0.976283     0.526287     0.930093    Uiso  ? C
   C27        1.0     0.976283     0.776287     0.072950    Uiso  ? C
   C27        1.0     0.976283     0.776287     0.215807    Uiso  ? C
   C27        1.0     0.976283     0.776287     0.358664    Uiso  ? C
   C27        1.0     0.976283     0.776287     0.501522    Uiso  ? C
   C27        1.0     0.976283     0.776287     0.644379    Uiso  ? C
   C27        1.0     0.976283     0.776287     0.787236    Uiso  ? C
   C27        1.0     0.976283     0.776287     0.930093    Uiso  ? C
   C28        1.0     0.313269     0.100809     0.072653    Uiso  ? C
   C28        1.0     0.313269     0.100809     0.215510    Uiso  ? C
   C28        1.0     0.313269     0.100809     0.358367    Uiso  ? C
   C28        1.0     0.313269     0.100809     0.501225    Uiso  ? C
   C28        1.0     0.313269     0.100809     0.644082    Uiso  ? C
   C28        1.0     0.313269     0.100809     0.786939    Uiso  ? C
   C28        1.0     0.313269     0.100809     0.929796    Uiso  ? C
   C28        1.0     0.313269     0.350809     0.072653    Uiso  ? C
   C28        1.0     0.313269     0.350809     0.215510    Uiso  ? C
   C28        1.0     0.313269     0.350809     0.358367    Uiso  ? C
   C28        1.0     0.313269     0.350809     0.501225    Uiso  ? C
   C28        1.0     0.313269     0.350809     0.644082    Uiso  ? C
   C28        1.0     0.313269     0.350809     0.786939    Uiso  ? C
   C28        1.0     0.313269     0.350809     0.929796    Uiso  ? C
   C28        1.0     0.313269     0.600809     0.072653    Uiso  ? C
   C28        1.0     0.313269     0.600809     0.215510    Uiso  ? C
   C28        1.0     0.313269     0.600809     0.358367    Uiso  ? C
   C28        1.0     0.313269     0.600809     0.501225    Uiso  ? C
   C28        1.0     0.313269     0.600809     0.644082    Uiso  ? C
   C28        1.0     0.313269     0.600809     0.786939    Uiso  ? C
   C28        1.0     0.313269     0.600809     0.929796    Uiso  ? C
   C28        1.0     0.313269     0.850809     0.072653    Uiso  ? C
   C28        1.0     0.313269     0.850809     0.215510    Uiso  ? C
   C28        1.0     0.313269     0.850809     0.358367    Uiso  ? C
   C28        1.0     0.313269     0.850809     0.501225    Uiso  ? C
   C28        1.0     0.313269     0.850809     0.644082    Uiso  ? C
   C28        1.0     0.313269     0.850809     0.786939    Uiso  ? C
   C28        1.0     0.313269     0.850809     0.929796    Uiso  ? C
   C28        1.0     0.646602     0.100809     0.072653    Uiso  ? C
   C28        1.0     0.646602     0.100809     0.215510    Uiso  ? C
   C28        1.0     0.646602     0.100809     0.358367    Uiso  ? C
   C28        1.0     0.646602     0.100809     0.501225    Uiso  ? C
   C28        1.0     0.646602     0.100809     0.644082    Uiso  ? C
   C28        1.0     0.646602     0.100809     0.786939    Uiso  ? C
   C28        1.0     0.646602     0.100809     0.929796    Uiso  ? C
   C28        1.0     0.646602     0.350809     0.072653    Uiso  ? C
   C28        1.0     0.646602     0.350809     0.215510    Uiso  ? C
   C28        1.0     0.646602     0.350809     0.358367    Uiso  ? C
   C28        1.0     0.646602     0.350809     0.501225    Uiso  ? C
   C28        1.0     0.646602     0.350809     0.644082    Uiso  ? C
   C28        1.0     0.646602     0.350809     0.786939    Uiso  ? C
   C28        1.0     0.646602     0.350809     0.929796    Uiso  ? C
   C28        1.0     0.646602     0.600809     0.072653    Uiso  ? C
   C28        1.0     0.646602     0.600809     0.215510    Uiso  ? C
   C28        1.0     0.646602     0.600809     0.358367    Uiso  ? C
   C28        1.0     0.646602     0.600809     0.501225    Uiso  ? C
   C28        1.0     0.646602     0.600809     0.644082    Uiso  ? C
   C28        1.0     0.646602     0.600809     0.786939    Uiso  ? C
   C28        1.0     0.646602     0.600809     0.929796    Uiso  ? C
   C28        1.0     0.646602     0.850809     0.072653    Uiso  ? C
   C28        1.0     0.646602     0.850809     0.215510    Uiso  ? C
   C28        1.0     0.646602     0.850809     0.358367    Uiso  ? C
   C28        1.0     0.646602     0.850809     0.501225    Uiso  ? C
   C28        1.0     0.646602     0.850809     0.644082    Uiso  ? C
   C28        1.0     0.646602     0.850809     0.786939    Uiso  ? C
   C28        1.0     0.646602     0.850809     0.929796    Uiso  ? C
   C28        1.0     0.979936     0.100809     0.072653    Uiso  ? C
   C28        1.0     0.979936     0.100809     0.215510    Uiso  ? C
   C28        1.0     0.979936     0.100809     0.358367    Uiso  ? C
   C28        1.0     0.979936     0.100809     0.501225    Uiso  ? C
   C28        1.0     0.979936     0.100809     0.644082    Uiso  ? C
   C28        1.0     0.979936     0.100809     0.786939    Uiso  ? C
   C28        1.0     0.979936     0.100809     0.929796    Uiso  ? C
   C28        1.0     0.979936     0.350809     0.072653    Uiso  ? C
   C28        1.0     0.979936     0.350809     0.215510    Uiso  ? C
   C28        1.0     0.979936     0.350809     0.358367    Uiso  ? C
   C28        1.0     0.979936     0.350809     0.501225    Uiso  ? C
   C28        1.0     0.979936     0.350809     0.644082    Uiso  ? C
   C28        1.0     0.979936     0.350809     0.786939    Uiso  ? C
   C28        1.0     0.979936     0.350809     0.929796    Uiso  ? C
   C28        1.0     0.979936     0.600809     0.072653    Uiso  ? C
   C28        1.0     0.979936     0.600809     0.215510    Uiso  ? C
   C28        1.0     0.979936     0.600809     0.358367    Uiso  ? C
   C28        1.0     0.979936     0.600809     0.501225    Uiso  ? C
   C28        1.0     0.979936     0.600809     0.644082    Uiso  ? C
   C28        1.0     0.979936     0.600809     0.786939    Uiso  ? C
   C28        1.0     0.979936     0.600809     0.929796    Uiso  ? C
   C28        1.0     0.979936     0.850809     0.072653    Uiso  ? C
   C28        1.0     0.979936     0.850809     0.215510    Uiso  ? C
   C28        1.0     0.979936     0.850809     0.358367    Uiso  ? C
   C28        1.0     0.979936     0.850809     0.501225    Uiso  ? C
   C28        1.0     0.979936     0.850809     0.644082    Uiso  ? C
   C28        1.0     0.979936     0.850809     0.786939    Uiso  ? C
   C28        1.0     0.979936     0.850809     0.929796    Uiso  ? C
   C29        1.0     0.021298     0.153822     0.067888    Uiso  ? C
   C29        1.0     0.021298     0.153822     0.210745    Uiso  ? C
   C29        1.0     0.021298     0.153822     0.353602    Uiso  ? C
   C29        1.0     0.021298     0.153822     0.496459    Uiso  ? C
   C29        1.0     0.021298     0.153822     0.639316    Uiso  ? C
   C29        1.0     0.021298     0.153822     0.782174    Uiso  ? C
   C29        1.0     0.021298     0.153822     0.925031    Uiso  ? C
   C29        1.0     0.021298     0.403822     0.067888    Uiso  ? C
   C29        1.0     0.021298     0.403822     0.210745    Uiso  ? C
   C29        1.0     0.021298     0.403822     0.353602    Uiso  ? C
   C29        1.0     0.021298     0.403822     0.496459    Uiso  ? C
   C29        1.0     0.021298     0.403822     0.639316    Uiso  ? C
   C29        1.0     0.021298     0.403822     0.782174    Uiso  ? C
   C29        1.0     0.021298     0.403822     0.925031    Uiso  ? C
   C29        1.0     0.021298     0.653822     0.067888    Uiso  ? C
   C29        1.0     0.021298     0.653822     0.210745    Uiso  ? C
   C29        1.0     0.021298     0.653822     0.353602    Uiso  ? C
   C29        1.0     0.021298     0.653822     0.496459    Uiso  ? C
   C29        1.0     0.021298     0.653822     0.639316    Uiso  ? C
   C29        1.0     0.021298     0.653822     0.782174    Uiso  ? C
   C29        1.0     0.021298     0.653822     0.925031    Uiso  ? C
   C29        1.0     0.021298     0.903822     0.067888    Uiso  ? C
   C29        1.0     0.021298     0.903822     0.210745    Uiso  ? C
   C29        1.0     0.021298     0.903822     0.353602    Uiso  ? C
   C29        1.0     0.021298     0.903822     0.496459    Uiso  ? C
   C29        1.0     0.021298     0.903822     0.639316    Uiso  ? C
   C29        1.0     0.021298     0.903822     0.782174    Uiso  ? C
   C29        1.0     0.021298     0.903822     0.925031    Uiso  ? C
   C29        1.0     0.354631     0.153822     0.067888    Uiso  ? C
   C29        1.0     0.354631     0.153822     0.210745    Uiso  ? C
   C29        1.0     0.354631     0.153822     0.353602    Uiso  ? C
   C29        1.0     0.354631     0.153822     0.496459    Uiso  ? C
   C29        1.0     0.354631     0.153822     0.639316    Uiso  ? C
   C29        1.0     0.354631     0.153822     0.782174    Uiso  ? C
   C29        1.0     0.354631     0.153822     0.925031    Uiso  ? C
   C29        1.0     0.354631     0.403822     0.067888    Uiso  ? C
   C29        1.0     0.354631     0.403822     0.210745    Uiso  ? C
   C29        1.0     0.354631     0.403822     0.353602    Uiso  ? C
   C29        1.0     0.354631     0.403822     0.496459    Uiso  ? C
   C29        1.0     0.354631     0.403822     0.639316    Uiso  ? C
   C29        1.0     0.354631     0.403822     0.782174    Uiso  ? C
   C29        1.0     0.354631     0.403822     0.925031    Uiso  ? C
   C29        1.0     0.354631     0.653822     0.067888    Uiso  ? C
   C29        1.0     0.354631     0.653822     0.210745    Uiso  ? C
   C29        1.0     0.354631     0.653822     0.353602    Uiso  ? C
   C29        1.0     0.354631     0.653822     0.496459    Uiso  ? C
   C29        1.0     0.354631     0.653822     0.639316    Uiso  ? C
   C29        1.0     0.354631     0.653822     0.782174    Uiso  ? C
   C29        1.0     0.354631     0.653822     0.925031    Uiso  ? C
   C29        1.0     0.354631     0.903822     0.067888    Uiso  ? C
   C29        1.0     0.354631     0.903822     0.210745    Uiso  ? C
   C29        1.0     0.354631     0.903822     0.353602    Uiso  ? C
   C29        1.0     0.354631     0.903822     0.496459    Uiso  ? C
   C29        1.0     0.354631     0.903822     0.639316    Uiso  ? C
   C29        1.0     0.354631     0.903822     0.782174    Uiso  ? C
   C29        1.0     0.354631     0.903822     0.925031    Uiso  ? C
   C29        1.0     0.687965     0.153822     0.067888    Uiso  ? C
   C29        1.0     0.687965     0.153822     0.210745    Uiso  ? C
   C29        1.0     0.687965     0.153822     0.353602    Uiso  ? C
   C29        1.0     0.687965     0.153822     0.496459    Uiso  ? C
   C29        1.0     0.687965     0.153822     0.639316    Uiso  ? C
   C29        1.0     0.687965     0.153822     0.782174    Uiso  ? C
   C29        1.0     0.687965     0.153822     0.925031    Uiso  ? C
   C29        1.0     0.687965     0.403822     0.067888    Uiso  ? C
   C29        1.0     0.687965     0.403822     0.210745    Uiso  ? C
   C29        1.0     0.687965     0.403822     0.353602    Uiso  ? C
   C29        1.0     0.687965     0.403822     0.496459    Uiso  ? C
   C29        1.0     0.687965     0.403822     0.639316    Uiso  ? C
   C29        1.0     0.687965     0.403822     0.782174    Uiso  ? C
   C29        1.0     0.687965     0.403822     0.925031    Uiso  ? C
   C29        1.0     0.687965     0.653822     0.067888    Uiso  ? C
   C29        1.0     0.687965     0.653822     0.210745    Uiso  ? C
   C29        1.0     0.687965     0.653822     0.353602    Uiso  ? C
   C29        1.0     0.687965     0.653822     0.496459    Uiso  ? C
   C29        1.0     0.687965     0.653822     0.639316    Uiso  ? C
   C29        1.0     0.687965     0.653822     0.782174    Uiso  ? C
   C29        1.0     0.687965     0.653822     0.925031    Uiso  ? C
   C29        1.0     0.687965     0.903822     0.067888    Uiso  ? C
   C29        1.0     0.687965     0.903822     0.210745    Uiso  ? C
   C29        1.0     0.687965     0.903822     0.353602    Uiso  ? C
   C29        1.0     0.687965     0.903822     0.496459    Uiso  ? C
   C29        1.0     0.687965     0.903822     0.639316    Uiso  ? C
   C29        1.0     0.687965     0.903822     0.782174    Uiso  ? C
   C29        1.0     0.687965     0.903822     0.925031    Uiso  ? C
   C30        1.0     0.295112     0.006122     0.069259    Uiso  ? C
   C30        1.0     0.295112     0.006122     0.212116    Uiso  ? C
   C30        1.0     0.295112     0.006122     0.354974    Uiso  ? C
   C30        1.0     0.295112     0.006122     0.497831    Uiso  ? C
   C30        1.0     0.295112     0.006122     0.640688    Uiso  ? C
   C30        1.0     0.295112     0.006122     0.783545    Uiso  ? C
   C30        1.0     0.295112     0.006122     0.926402    Uiso  ? C
   C30        1.0     0.295112     0.256122     0.069259    Uiso  ? C
   C30        1.0     0.295112     0.256122     0.212116    Uiso  ? C
   C30        1.0     0.295112     0.256122     0.354974    Uiso  ? C
   C30        1.0     0.295112     0.256122     0.497831    Uiso  ? C
   C30        1.0     0.295112     0.256122     0.640688    Uiso  ? C
   C30        1.0     0.295112     0.256122     0.783545    Uiso  ? C
   C30        1.0     0.295112     0.256122     0.926402    Uiso  ? C
   C30        1.0     0.295112     0.506122     0.069259    Uiso  ? C
   C30        1.0     0.295112     0.506122     0.212116    Uiso  ? C
   C30        1.0     0.295112     0.506122     0.354974    Uiso  ? C
   C30        1.0     0.295112     0.506122     0.497831    Uiso  ? C
   C30        1.0     0.295112     0.506122     0.640688    Uiso  ? C
   C30        1.0     0.295112     0.506122     0.783545    Uiso  ? C
   C30        1.0     0.295112     0.506122     0.926402    Uiso  ? C
   C30        1.0     0.295112     0.756122     0.069259    Uiso  ? C
   C30        1.0     0.295112     0.756122     0.212116    Uiso  ? C
   C30        1.0     0.295112     0.756122     0.354974    Uiso  ? C
   C30        1.0     0.295112     0.756122     0.497831    Uiso  ? C
   C30        1.0     0.295112     0.756122     0.640688    Uiso  ? C
   C30        1.0     0.295112     0.756122     0.783545    Uiso  ? C
   C30        1.0     0.295112     0.756122     0.926402    Uiso  ? C
   C30        1.0     0.628446     0.006122     0.069259    Uiso  ? C
   C30        1.0     0.628446     0.006122     0.212116    Uiso  ? C
   C30        1.0     0.628446     0.006122     0.354974    Uiso  ? C
   C30        1.0     0.628446     0.006122     0.497831    Uiso  ? C
   C30        1.0     0.628446     0.006122     0.640688    Uiso  ? C
   C30        1.0     0.628446     0.006122     0.783545    Uiso  ? C
   C30        1.0     0.628446     0.006122     0.926402    Uiso  ? C
   C30        1.0     0.628446     0.256122     0.069259    Uiso  ? C
   C30        1.0     0.628446     0.256122     0.212116    Uiso  ? C
   C30        1.0     0.628446     0.256122     0.354974    Uiso  ? C
   C30        1.0     0.628446     0.256122     0.497831    Uiso  ? C
   C30        1.0     0.628446     0.256122     0.640688    Uiso  ? C
   C30        1.0     0.628446     0.256122     0.783545    Uiso  ? C
   C30        1.0     0.628446     0.256122     0.926402    Uiso  ? C
   C30        1.0     0.628446     0.506122     0.069259    Uiso  ? C
   C30        1.0     0.628446     0.506122     0.212116    Uiso  ? C
   C30        1.0     0.628446     0.506122     0.354974    Uiso  ? C
   C30        1.0     0.628446     0.506122     0.497831    Uiso  ? C
   C30        1.0     0.628446     0.506122     0.640688    Uiso  ? C
   C30        1.0     0.628446     0.506122     0.783545    Uiso  ? C
   C30        1.0     0.628446     0.506122     0.926402    Uiso  ? C
   C30        1.0     0.628446     0.756122     0.069259    Uiso  ? C
   C30        1.0     0.628446     0.756122     0.212116    Uiso  ? C
   C30        1.0     0.628446     0.756122     0.354974    Uiso  ? C
   C30        1.0     0.628446     0.756122     0.497831    Uiso  ? C
   C30        1.0     0.628446     0.756122     0.640688    Uiso  ? C
   C30        1.0     0.628446     0.756122     0.783545    Uiso  ? C
   C30        1.0     0.628446     0.756122     0.926402    Uiso  ? C
   C30        1.0     0.961779     0.006122     0.069259    Uiso  ? C
   C30        1.0     0.961779     0.006122     0.212116    Uiso  ? C
   C30        1.0     0.961779     0.006122     0.354974    Uiso  ? C
   C30        1.0     0.961779     0.006122     0.497831    Uiso  ? C
   C30        1.0     0.961779     0.006122     0.640688    Uiso  ? C
   C30        1.0     0.961779     0.006122     0.783545    Uiso  ? C
   C30        1.0     0.961779     0.006122     0.926402    Uiso  ? C
   C30        1.0     0.961779     0.256122     0.069259    Uiso  ? C
   C30        1.0     0.961779     0.256122     0.212116    Uiso  ? C
   C30        1.0     0.961779     0.256122     0.354974    Uiso  ? C
   C30        1.0     0.961779     0.256122     0.497831    Uiso  ? C
   C30        1.0     0.961779     0.256122     0.640688    Uiso  ? C
   C30        1.0     0.961779     0.256122     0.783545    Uiso  ? C
   C30        1.0     0.961779     0.256122     0.926402    Uiso  ? C
   C30        1.0     0.961779     0.506122     0.069259    Uiso  ? C
   C30        1.0     0.961779     0.506122     0.212116    Uiso  ? C
   C30        1.0     0.961779     0.506122     0.354974    Uiso  ? C
   C30        1.0     0.961779     0.506122     0.497831    Uiso  ? C
   C30        1.0     0.961779     0.506122     0.640688    Uiso  ? C
   C30        1.0     0.961779     0.506122     0.783545    Uiso  ? C
   C30        1.0     0.961779     0.506122     0.926402    Uiso  ? C
   C30        1.0     0.961779     0.756122     0.069259    Uiso  ? C
   C30        1.0     0.961779     0.756122     0.212116    Uiso  ? C
   C30        1.0     0.961779     0.756122     0.354974    Uiso  ? C
   C30        1.0     0.961779     0.756122     0.497831    Uiso  ? C
   C30        1.0     0.961779     0.756122     0.640688    Uiso  ? C
   C30        1.0     0.961779     0.756122     0.783545    Uiso  ? C
   C30        1.0     0.961779     0.756122     0.926402    Uiso  ? C
   C31        1.0     0.019461     0.226865     0.067490    Uiso  ? C
   C31        1.0     0.019461     0.226865     0.210347    Uiso  ? C
   C31        1.0     0.019461     0.226865     0.353204    Uiso  ? C
   C31        1.0     0.019461     0.226865     0.496061    Uiso  ? C
   C31        1.0     0.019461     0.226865     0.638918    Uiso  ? C
   C31        1.0     0.019461     0.226865     0.781775    Uiso  ? C
   C31        1.0     0.019461     0.226865     0.924632    Uiso  ? C
   C31        1.0     0.019461     0.476865     0.067490    Uiso  ? C
   C31        1.0     0.019461     0.476865     0.210347    Uiso  ? C
   C31        1.0     0.019461     0.476865     0.353204    Uiso  ? C
   C31        1.0     0.019461     0.476865     0.496061    Uiso  ? C
   C31        1.0     0.019461     0.476865     0.638918    Uiso  ? C
   C31        1.0     0.019461     0.476865     0.781775    Uiso  ? C
   C31        1.0     0.019461     0.476865     0.924632    Uiso  ? C
   C31        1.0     0.019461     0.726865     0.067490    Uiso  ? C
   C31        1.0     0.019461     0.726865     0.210347    Uiso  ? C
   C31        1.0     0.019461     0.726865     0.353204    Uiso  ? C
   C31        1.0     0.019461     0.726865     0.496061    Uiso  ? C
   C31        1.0     0.019461     0.726865     0.638918    Uiso  ? C
   C31        1.0     0.019461     0.726865     0.781775    Uiso  ? C
   C31        1.0     0.019461     0.726865     0.924632    Uiso  ? C
   C31        1.0     0.019461     0.976865     0.067490    Uiso  ? C
   C31        1.0     0.019461     0.976865     0.210347    Uiso  ? C
   C31        1.0     0.019461     0.976865     0.353204    Uiso  ? C
   C31        1.0     0.019461     0.976865     0.496061    Uiso  ? C
   C31        1.0     0.019461     0.976865     0.638918    Uiso  ? C
   C31        1.0     0.019461     0.976865     0.781775    Uiso  ? C
   C31        1.0     0.019461     0.976865     0.924632    Uiso  ? C
   C31        1.0     0.352794     0.226865     0.067490    Uiso  ? C
   C31        1.0     0.352794     0.226865     0.210347    Uiso  ? C
   C31        1.0     0.352794     0.226865     0.353204    Uiso  ? C
   C31        1.0     0.352794     0.226865     0.496061    Uiso  ? C
   C31        1.0     0.352794     0.226865     0.638918    Uiso  ? C
   C31        1.0     0.352794     0.226865     0.781775    Uiso  ? C
   C31        1.0     0.352794     0.226865     0.924632    Uiso  ? C
   C31        1.0     0.352794     0.476865     0.067490    Uiso  ? C
   C31        1.0     0.352794     0.476865     0.210347    Uiso  ? C
   C31        1.0     0.352794     0.476865     0.353204    Uiso  ? C
   C31        1.0     0.352794     0.476865     0.496061    Uiso  ? C
   C31        1.0     0.352794     0.476865     0.638918    Uiso  ? C
   C31        1.0     0.352794     0.476865     0.781775    Uiso  ? C
   C31        1.0     0.352794     0.476865     0.924632    Uiso  ? C
   C31        1.0     0.352794     0.726865     0.067490    Uiso  ? C
   C31        1.0     0.352794     0.726865     0.210347    Uiso  ? C
   C31        1.0     0.352794     0.726865     0.353204    Uiso  ? C
   C31        1.0     0.352794     0.726865     0.496061    Uiso  ? C
   C31        1.0     0.352794     0.726865     0.638918    Uiso  ? C
   C31        1.0     0.352794     0.726865     0.781775    Uiso  ? C
   C31        1.0     0.352794     0.726865     0.924632    Uiso  ? C
   C31        1.0     0.352794     0.976865     0.067490    Uiso  ? C
   C31        1.0     0.352794     0.976865     0.210347    Uiso  ? C
   C31        1.0     0.352794     0.976865     0.353204    Uiso  ? C
   C31        1.0     0.352794     0.976865     0.496061    Uiso  ? C
   C31        1.0     0.352794     0.976865     0.638918    Uiso  ? C
   C31        1.0     0.352794     0.976865     0.781775    Uiso  ? C
   C31        1.0     0.352794     0.976865     0.924632    Uiso  ? C
   C31        1.0     0.686128     0.226865     0.067490    Uiso  ? C
   C31        1.0     0.686128     0.226865     0.210347    Uiso  ? C
   C31        1.0     0.686128     0.226865     0.353204    Uiso  ? C
   C31        1.0     0.686128     0.226865     0.496061    Uiso  ? C
   C31        1.0     0.686128     0.226865     0.638918    Uiso  ? C
   C31        1.0     0.686128     0.226865     0.781775    Uiso  ? C
   C31        1.0     0.686128     0.226865     0.924632    Uiso  ? C
   C31        1.0     0.686128     0.476865     0.067490    Uiso  ? C
   C31        1.0     0.686128     0.476865     0.210347    Uiso  ? C
   C31        1.0     0.686128     0.476865     0.353204    Uiso  ? C
   C31        1.0     0.686128     0.476865     0.496061    Uiso  ? C
   C31        1.0     0.686128     0.476865     0.638918    Uiso  ? C
   C31        1.0     0.686128     0.476865     0.781775    Uiso  ? C
   C31        1.0     0.686128     0.476865     0.924632    Uiso  ? C
   C31        1.0     0.686128     0.726865     0.067490    Uiso  ? C
   C31        1.0     0.686128     0.726865     0.210347    Uiso  ? C
   C31        1.0     0.686128     0.726865     0.353204    Uiso  ? C
   C31        1.0     0.686128     0.726865     0.496061    Uiso  ? C
   C31        1.0     0.686128     0.726865     0.638918    Uiso  ? C
   C31        1.0     0.686128     0.726865     0.781775    Uiso  ? C
   C31        1.0     0.686128     0.726865     0.924632    Uiso  ? C
   C31        1.0     0.686128     0.976865     0.067490    Uiso  ? C
   C31        1.0     0.686128     0.976865     0.210347    Uiso  ? C
   C31        1.0     0.686128     0.976865     0.353204    Uiso  ? C
   C31        1.0     0.686128     0.976865     0.496061    Uiso  ? C
   C31        1.0     0.686128     0.976865     0.638918    Uiso  ? C
   C31        1.0     0.686128     0.976865     0.781775    Uiso  ? C
   C31        1.0     0.686128     0.976865     0.924632    Uiso  ? C
   C32        1.0     0.298870     0.121049     0.068669    Uiso  ? C
   C32        1.0     0.298870     0.121049     0.211526    Uiso  ? C
   C32        1.0     0.298870     0.121049     0.354383    Uiso  ? C
   C32        1.0     0.298870     0.121049     0.497240    Uiso  ? C
   C32        1.0     0.298870     0.121049     0.640098    Uiso  ? C
   C32        1.0     0.298870     0.121049     0.782955    Uiso  ? C
   C32        1.0     0.298870     0.121049     0.925812    Uiso  ? C
   C32        1.0     0.298870     0.371049     0.068669    Uiso  ? C
   C32        1.0     0.298870     0.371049     0.211526    Uiso  ? C
   C32        1.0     0.298870     0.371049     0.354383    Uiso  ? C
   C32        1.0     0.298870     0.371049     0.497240    Uiso  ? C
   C32        1.0     0.298870     0.371049     0.640098    Uiso  ? C
   C32        1.0     0.298870     0.371049     0.782955    Uiso  ? C
   C32        1.0     0.298870     0.371049     0.925812    Uiso  ? C
   C32        1.0     0.298870     0.621049     0.068669    Uiso  ? C
   C32        1.0     0.298870     0.621049     0.211526    Uiso  ? C
   C32        1.0     0.298870     0.621049     0.354383    Uiso  ? C
   C32        1.0     0.298870     0.621049     0.497240    Uiso  ? C
   C32        1.0     0.298870     0.621049     0.640098    Uiso  ? C
   C32        1.0     0.298870     0.621049     0.782955    Uiso  ? C
   C32        1.0     0.298870     0.621049     0.925812    Uiso  ? C
   C32        1.0     0.298870     0.871049     0.068669    Uiso  ? C
   C32        1.0     0.298870     0.871049     0.211526    Uiso  ? C
   C32        1.0     0.298870     0.871049     0.354383    Uiso  ? C
   C32        1.0     0.298870     0.871049     0.497240    Uiso  ? C
   C32        1.0     0.298870     0.871049     0.640098    Uiso  ? C
   C32        1.0     0.298870     0.871049     0.782955    Uiso  ? C
   C32        1.0     0.298870     0.871049     0.925812    Uiso  ? C
   C32        1.0     0.632204     0.121049     0.068669    Uiso  ? C
   C32        1.0     0.632204     0.121049     0.211526    Uiso  ? C
   C32        1.0     0.632204     0.121049     0.354383    Uiso  ? C
   C32        1.0     0.632204     0.121049     0.497240    Uiso  ? C
   C32        1.0     0.632204     0.121049     0.640098    Uiso  ? C
   C32        1.0     0.632204     0.121049     0.782955    Uiso  ? C
   C32        1.0     0.632204     0.121049     0.925812    Uiso  ? C
   C32        1.0     0.632204     0.371049     0.068669    Uiso  ? C
   C32        1.0     0.632204     0.371049     0.211526    Uiso  ? C
   C32        1.0     0.632204     0.371049     0.354383    Uiso  ? C
   C32        1.0     0.632204     0.371049     0.497240    Uiso  ? C
   C32        1.0     0.632204     0.371049     0.640098    Uiso  ? C
   C32        1.0     0.632204     0.371049     0.782955    Uiso  ? C
   C32        1.0     0.632204     0.371049     0.925812    Uiso  ? C
   C32        1.0     0.632204     0.621049     0.068669    Uiso  ? C
   C32        1.0     0.632204     0.621049     0.211526    Uiso  ? C
   C32        1.0     0.632204     0.621049     0.354383    Uiso  ? C
   C32        1.0     0.632204     0.621049     0.497240    Uiso  ? C
   C32        1.0     0.632204     0.621049     0.640098    Uiso  ? C
   C32        1.0     0.632204     0.621049     0.782955    Uiso  ? C
   C32        1.0     0.632204     0.621049     0.925812    Uiso  ? C
   C32        1.0     0.632204     0.871049     0.068669    Uiso  ? C
   C32        1.0     0.632204     0.871049     0.211526    Uiso  ? C
   C32        1.0     0.632204     0.871049     0.354383    Uiso  ? C
   C32        1.0     0.632204     0.871049     0.497240    Uiso  ? C
   C32        1.0     0.632204     0.871049     0.640098    Uiso  ? C
   C32        1.0     0.632204     0.871049     0.782955    Uiso  ? C
   C32        1.0     0.632204     0.871049     0.925812    Uiso  ? C
   C32        1.0     0.965537     0.121049     0.068669    Uiso  ? C
   C32        1.0     0.965537     0.121049     0.211526    Uiso  ? C
   C32        1.0     0.965537     0.121049     0.354383    Uiso  ? C
   C32        1.0     0.965537     0.121049     0.497240    Uiso  ? C
   C32        1.0     0.965537     0.121049     0.640098    Uiso  ? C
   C32        1.0     0.965537     0.121049     0.782955    Uiso  ? C
   C32        1.0     0.965537     0.121049     0.925812    Uiso  ? C
   C32        1.0     0.965537     0.371049     0.068669    Uiso  ? C
   C32        1.0     0.965537     0.371049     0.211526    Uiso  ? C
   C32        1.0     0.965537     0.371049     0.354383    Uiso  ? C
   C32        1.0     0.965537     0.371049     0.497240    Uiso  ? C
   C32        1.0     0.965537     0.371049     0.640098    Uiso  ? C
   C32        1.0     0.965537     0.371049     0.782955    Uiso  ? C
   C32        1.0     0.965537     0.371049     0.925812    Uiso  ? C
   C32        1.0     0.965537     0.621049     0.068669    Uiso  ? C
   C32        1.0     0.965537     0.621049     0.211526    Uiso  ? C
   C32        1.0     0.965537     0.621049     0.354383    Uiso  ? C
   C32        1.0     0.965537     0.621049     0.497240    Uiso  ? C
   C32        1.0     0.965537     0.621049     0.640098    Uiso  ? C
   C32        1.0     0.965537     0.621049     0.782955    Uiso  ? C
   C32        1.0     0.965537     0.621049     0.925812    Uiso  ? C
   C32        1.0     0.965537     0.871049     0.068669    Uiso  ? C
   C32        1.0     0.965537     0.871049     0.211526    Uiso  ? C
   C32        1.0     0.965537     0.871049     0.354383    Uiso  ? C
   C32        1.0     0.965537     0.871049     0.497240    Uiso  ? C
   C32        1.0     0.965537     0.871049     0.640098    Uiso  ? C
   C32        1.0     0.965537     0.871049     0.782955    Uiso  ? C
   C32        1.0     0.965537     0.871049     0.925812    Uiso  ? C
   C33        1.0     0.321641     0.035101     0.051329    Uiso  ? C
   C33        1.0     0.321641     0.035101     0.194186    Uiso  ? C
   C33        1.0     0.321641     0.035101     0.337044    Uiso  ? C
   C33        1.0     0.321641     0.035101     0.479901    Uiso  ? C
   C33        1.0     0.321641     0.035101     0.622758    Uiso  ? C
   C33        1.0     0.321641     0.035101     0.765615    Uiso  ? C
   C33        1.0     0.321641     0.035101     0.908472    Uiso  ? C
   C33        1.0     0.321641     0.285101     0.051329    Uiso  ? C
   C33        1.0     0.321641     0.285101     0.194186    Uiso  ? C
   C33        1.0     0.321641     0.285101     0.337044    Uiso  ? C
   C33        1.0     0.321641     0.285101     0.479901    Uiso  ? C
   C33        1.0     0.321641     0.285101     0.622758    Uiso  ? C
   C33        1.0     0.321641     0.285101     0.765615    Uiso  ? C
   C33        1.0     0.321641     0.285101     0.908472    Uiso  ? C
   C33        1.0     0.321641     0.535101     0.051329    Uiso  ? C
   C33        1.0     0.321641     0.535101     0.194186    Uiso  ? C
   C33        1.0     0.321641     0.535101     0.337044    Uiso  ? C
   C33        1.0     0.321641     0.535101     0.479901    Uiso  ? C
   C33        1.0     0.321641     0.535101     0.622758    Uiso  ? C
   C33        1.0     0.321641     0.535101     0.765615    Uiso  ? C
   C33        1.0     0.321641     0.535101     0.908472    Uiso  ? C
   C33        1.0     0.321641     0.785101     0.051329    Uiso  ? C
   C33        1.0     0.321641     0.785101     0.194186    Uiso  ? C
   C33        1.0     0.321641     0.785101     0.337044    Uiso  ? C
   C33        1.0     0.321641     0.785101     0.479901    Uiso  ? C
   C33        1.0     0.321641     0.785101     0.622758    Uiso  ? C
   C33        1.0     0.321641     0.785101     0.765615    Uiso  ? C
   C33        1.0     0.321641     0.785101     0.908472    Uiso  ? C
   C33        1.0     0.654975     0.035101     0.051329    Uiso  ? C
   C33        1.0     0.654975     0.035101     0.194186    Uiso  ? C
   C33        1.0     0.654975     0.035101     0.337044    Uiso  ? C
   C33        1.0     0.654975     0.035101     0.479901    Uiso  ? C
   C33        1.0     0.654975     0.035101     0.622758    Uiso  ? C
   C33        1.0     0.654975     0.035101     0.765615    Uiso  ? C
   C33        1.0     0.654975     0.035101     0.908472    Uiso  ? C
   C33        1.0     0.654975     0.285101     0.051329    Uiso  ? C
   C33        1.0     0.654975     0.285101     0.194186    Uiso  ? C
   C33        1.0     0.654975     0.285101     0.337044    Uiso  ? C
   C33        1.0     0.654975     0.285101     0.479901    Uiso  ? C
   C33        1.0     0.654975     0.285101     0.622758    Uiso  ? C
   C33        1.0     0.654975     0.285101     0.765615    Uiso  ? C
   C33        1.0     0.654975     0.285101     0.908472    Uiso  ? C
   C33        1.0     0.654975     0.535101     0.051329    Uiso  ? C
   C33        1.0     0.654975     0.535101     0.194186    Uiso  ? C
   C33        1.0     0.654975     0.535101     0.337044    Uiso  ? C
   C33        1.0     0.654975     0.535101     0.479901    Uiso  ? C
   C33        1.0     0.654975     0.535101     0.622758    Uiso  ? C
   C33        1.0     0.654975     0.535101     0.765615    Uiso  ? C
   C33        1.0     0.654975     0.535101     0.908472    Uiso  ? C
   C33        1.0     0.654975     0.785101     0.051329    Uiso  ? C
   C33        1.0     0.654975     0.785101     0.194186    Uiso  ? C
   C33        1.0     0.654975     0.785101     0.337044    Uiso  ? C
   C33        1.0     0.654975     0.785101     0.479901    Uiso  ? C
   C33        1.0     0.654975     0.785101     0.622758    Uiso  ? C
   C33        1.0     0.654975     0.785101     0.765615    Uiso  ? C
   C33        1.0     0.654975     0.785101     0.908472    Uiso  ? C
   C33        1.0     0.988308     0.035101     0.051329    Uiso  ? C
   C33        1.0     0.988308     0.035101     0.194186    Uiso  ? C
   C33        1.0     0.988308     0.035101     0.337044    Uiso  ? C
   C33        1.0     0.988308     0.035101     0.479901    Uiso  ? C
   C33        1.0     0.988308     0.035101     0.622758    Uiso  ? C
   C33        1.0     0.988308     0.035101     0.765615    Uiso  ? C
   C33        1.0     0.988308     0.035101     0.908472    Uiso  ? C
   C33        1.0     0.988308     0.285101     0.051329    Uiso  ? C
   C33        1.0     0.988308     0.285101     0.194186    Uiso  ? C
   C33        1.0     0.988308     0.285101     0.337044    Uiso  ? C
   C33        1.0     0.988308     0.285101     0.479901    Uiso  ? C
   C33        1.0     0.988308     0.285101     0.622758    Uiso  ? C
   C33        1.0     0.988308     0.285101     0.765615    Uiso  ? C
   C33        1.0     0.988308     0.285101     0.908472    Uiso  ? C
   C33        1.0     0.988308     0.535101     0.051329    Uiso  ? C
   C33        1.0     0.988308     0.535101     0.194186    Uiso  ? C
   C33        1.0     0.988308     0.535101     0.337044    Uiso  ? C
   C33        1.0     0.988308     0.535101     0.479901    Uiso  ? C
   C33        1.0     0.988308     0.535101     0.622758    Uiso  ? C
   C33        1.0     0.988308     0.535101     0.765615    Uiso  ? C
   C33        1.0     0.988308     0.535101     0.908472    Uiso  ? C
   C33        1.0     0.988308     0.785101     0.051329    Uiso  ? C
   C33        1.0     0.988308     0.785101     0.194186    Uiso  ? C
   C33        1.0     0.988308     0.785101     0.337044    Uiso  ? C
   C33        1.0     0.988308     0.785101     0.479901    Uiso  ? C
   C33        1.0     0.988308     0.785101     0.622758    Uiso  ? C
   C33        1.0     0.988308     0.785101     0.765615    Uiso  ? C
   C33        1.0     0.988308     0.785101     0.908472    Uiso  ? C
   C34        1.0     0.322259     0.088541     0.050678    Uiso  ? C
   C34        1.0     0.322259     0.088541     0.193535    Uiso  ? C
   C34        1.0     0.322259     0.088541     0.336392    Uiso  ? C
   C34        1.0     0.322259     0.088541     0.479249    Uiso  ? C
   C34        1.0     0.322259     0.088541     0.622106    Uiso  ? C
   C34        1.0     0.322259     0.088541     0.764963    Uiso  ? C
   C34        1.0     0.322259     0.088541     0.907820    Uiso  ? C
   C34        1.0     0.322259     0.338541     0.050678    Uiso  ? C
   C34        1.0     0.322259     0.338541     0.193535    Uiso  ? C
   C34        1.0     0.322259     0.338541     0.336392    Uiso  ? C
   C34        1.0     0.322259     0.338541     0.479249    Uiso  ? C
   C34        1.0     0.322259     0.338541     0.622106    Uiso  ? C
   C34        1.0     0.322259     0.338541     0.764963    Uiso  ? C
   C34        1.0     0.322259     0.338541     0.907820    Uiso  ? C
   C34        1.0     0.322259     0.588541     0.050678    Uiso  ? C
   C34        1.0     0.322259     0.588541     0.193535    Uiso  ? C
   C34        1.0     0.322259     0.588541     0.336392    Uiso  ? C
   C34        1.0     0.322259     0.588541     0.479249    Uiso  ? C
   C34        1.0     0.322259     0.588541     0.622106    Uiso  ? C
   C34        1.0     0.322259     0.588541     0.764963    Uiso  ? C
   C34        1.0     0.322259     0.588541     0.907820    Uiso  ? C
   C34        1.0     0.322259     0.838541     0.050678    Uiso  ? C
   C34        1.0     0.322259     0.838541     0.193535    Uiso  ? C
   C34        1.0     0.322259     0.838541     0.336392    Uiso  ? C
   C34        1.0     0.322259     0.838541     0.479249    Uiso  ? C
   C34        1.0     0.322259     0.838541     0.622106    Uiso  ? C
   C34        1.0     0.322259     0.838541     0.764963    Uiso  ? C
   C34        1.0     0.322259     0.838541     0.907820    Uiso  ? C
   C34        1.0     0.655592     0.088541     0.050678    Uiso  ? C
   C34        1.0     0.655592     0.088541     0.193535    Uiso  ? C
   C34        1.0     0.655592     0.088541     0.336392    Uiso  ? C
   C34        1.0     0.655592     0.088541     0.479249    Uiso  ? C
   C34        1.0     0.655592     0.088541     0.622106    Uiso  ? C
   C34        1.0     0.655592     0.088541     0.764963    Uiso  ? C
   C34        1.0     0.655592     0.088541     0.907820    Uiso  ? C
   C34        1.0     0.655592     0.338541     0.050678    Uiso  ? C
   C34        1.0     0.655592     0.338541     0.193535    Uiso  ? C
   C34        1.0     0.655592     0.338541     0.336392    Uiso  ? C
   C34        1.0     0.655592     0.338541     0.479249    Uiso  ? C
   C34        1.0     0.655592     0.338541     0.622106    Uiso  ? C
   C34        1.0     0.655592     0.338541     0.764963    Uiso  ? C
   C34        1.0     0.655592     0.338541     0.907820    Uiso  ? C
   C34        1.0     0.655592     0.588541     0.050678    Uiso  ? C
   C34        1.0     0.655592     0.588541     0.193535    Uiso  ? C
   C34        1.0     0.655592     0.588541     0.336392    Uiso  ? C
   C34        1.0     0.655592     0.588541     0.479249    Uiso  ? C
   C34        1.0     0.655592     0.588541     0.622106    Uiso  ? C
   C34        1.0     0.655592     0.588541     0.764963    Uiso  ? C
   C34        1.0     0.655592     0.588541     0.907820    Uiso  ? C
   C34        1.0     0.655592     0.838541     0.050678    Uiso  ? C
   C34        1.0     0.655592     0.838541     0.193535    Uiso  ? C
   C34        1.0     0.655592     0.838541     0.336392    Uiso  ? C
   C34        1.0     0.655592     0.838541     0.479249    Uiso  ? C
   C34        1.0     0.655592     0.838541     0.622106    Uiso  ? C
   C34        1.0     0.655592     0.838541     0.764963    Uiso  ? C
   C34        1.0     0.655592     0.838541     0.907820    Uiso  ? C
   C34        1.0     0.988925     0.088541     0.050678    Uiso  ? C
   C34        1.0     0.988925     0.088541     0.193535    Uiso  ? C
   C34        1.0     0.988925     0.088541     0.336392    Uiso  ? C
   C34        1.0     0.988925     0.088541     0.479249    Uiso  ? C
   C34        1.0     0.988925     0.088541     0.622106    Uiso  ? C
   C34        1.0     0.988925     0.088541     0.764963    Uiso  ? C
   C34        1.0     0.988925     0.088541     0.907820    Uiso  ? C
   C34        1.0     0.988925     0.338541     0.050678    Uiso  ? C
   C34        1.0     0.988925     0.338541     0.193535    Uiso  ? C
   C34        1.0     0.988925     0.338541     0.336392    Uiso  ? C
   C34        1.0     0.988925     0.338541     0.479249    Uiso  ? C
   C34        1.0     0.988925     0.338541     0.622106    Uiso  ? C
   C34        1.0     0.988925     0.338541     0.764963    Uiso  ? C
   C34        1.0     0.988925     0.338541     0.907820    Uiso  ? C
   C34        1.0     0.988925     0.588541     0.050678    Uiso  ? C
   C34        1.0     0.988925     0.588541     0.193535    Uiso  ? C
   C34        1.0     0.988925     0.588541     0.336392    Uiso  ? C
   C34        1.0     0.988925     0.588541     0.479249    Uiso  ? C
   C34        1.0     0.988925     0.588541     0.622106    Uiso  ? C
   C34        1.0     0.988925     0.588541     0.764963    Uiso  ? C
   C34        1.0     0.988925     0.588541     0.907820    Uiso  ? C
   C34        1.0     0.988925     0.838541     0.050678    Uiso  ? C
   C34        1.0     0.988925     0.838541     0.193535    Uiso  ? C
   C34        1.0     0.988925     0.838541     0.336392    Uiso  ? C
   C34        1.0     0.988925     0.838541     0.479249    Uiso  ? C
   C34        1.0     0.988925     0.838541     0.622106    Uiso  ? C
   C34        1.0     0.988925     0.838541     0.764963    Uiso  ? C
   C34        1.0     0.988925     0.838541     0.907820    Uiso  ? C
   C35        1.0     0.137133     0.245035     0.047248    Uiso  ? C
   C35        1.0     0.137133     0.245035     0.190105    Uiso  ? C
   C35        1.0     0.137133     0.245035     0.332962    Uiso  ? C
   C35        1.0     0.137133     0.245035     0.475820    Uiso  ? C
   C35        1.0     0.137133     0.245035     0.618677    Uiso  ? C
   C35        1.0     0.137133     0.245035     0.761534    Uiso  ? C
   C35        1.0     0.137133     0.245035     0.904391    Uiso  ? C
   C35        1.0     0.137133     0.495035     0.047248    Uiso  ? C
   C35        1.0     0.137133     0.495035     0.190105    Uiso  ? C
   C35        1.0     0.137133     0.495035     0.332962    Uiso  ? C
   C35        1.0     0.137133     0.495035     0.475820    Uiso  ? C
   C35        1.0     0.137133     0.495035     0.618677    Uiso  ? C
   C35        1.0     0.137133     0.495035     0.761534    Uiso  ? C
   C35        1.0     0.137133     0.495035     0.904391    Uiso  ? C
   C35        1.0     0.137133     0.745035     0.047248    Uiso  ? C
   C35        1.0     0.137133     0.745035     0.190105    Uiso  ? C
   C35        1.0     0.137133     0.745035     0.332962    Uiso  ? C
   C35        1.0     0.137133     0.745035     0.475820    Uiso  ? C
   C35        1.0     0.137133     0.745035     0.618677    Uiso  ? C
   C35        1.0     0.137133     0.745035     0.761534    Uiso  ? C
   C35        1.0     0.137133     0.745035     0.904391    Uiso  ? C
   C35        1.0     0.137133     0.995035     0.047248    Uiso  ? C
   C35        1.0     0.137133     0.995035     0.190105    Uiso  ? C
   C35        1.0     0.137133     0.995035     0.332962    Uiso  ? C
   C35        1.0     0.137133     0.995035     0.475820    Uiso  ? C
   C35        1.0     0.137133     0.995035     0.618677    Uiso  ? C
   C35        1.0     0.137133     0.995035     0.761534    Uiso  ? C
   C35        1.0     0.137133     0.995035     0.904391    Uiso  ? C
   C35        1.0     0.470466     0.245035     0.047248    Uiso  ? C
   C35        1.0     0.470466     0.245035     0.190105    Uiso  ? C
   C35        1.0     0.470466     0.245035     0.332962    Uiso  ? C
   C35        1.0     0.470466     0.245035     0.475820    Uiso  ? C
   C35        1.0     0.470466     0.245035     0.618677    Uiso  ? C
   C35        1.0     0.470466     0.245035     0.761534    Uiso  ? C
   C35        1.0     0.470466     0.245035     0.904391    Uiso  ? C
   C35        1.0     0.470466     0.495035     0.047248    Uiso  ? C
   C35        1.0     0.470466     0.495035     0.190105    Uiso  ? C
   C35        1.0     0.470466     0.495035     0.332962    Uiso  ? C
   C35        1.0     0.470466     0.495035     0.475820    Uiso  ? C
   C35        1.0     0.470466     0.495035     0.618677    Uiso  ? C
   C35        1.0     0.470466     0.495035     0.761534    Uiso  ? C
   C35        1.0     0.470466     0.495035     0.904391    Uiso  ? C
   C35        1.0     0.470466     0.745035     0.047248    Uiso  ? C
   C35        1.0     0.470466     0.745035     0.190105    Uiso  ? C
   C35        1.0     0.470466     0.745035     0.332962    Uiso  ? C
   C35        1.0     0.470466     0.745035     0.475820    Uiso  ? C
   C35        1.0     0.470466     0.745035     0.618677    Uiso  ? C
   C35        1.0     0.470466     0.745035     0.761534    Uiso  ? C
   C35        1.0     0.470466     0.745035     0.904391    Uiso  ? C
   C35        1.0     0.470466     0.995035     0.047248    Uiso  ? C
   C35        1.0     0.470466     0.995035     0.190105    Uiso  ? C
   C35        1.0     0.470466     0.995035     0.332962    Uiso  ? C
   C35        1.0     0.470466     0.995035     0.475820    Uiso  ? C
   C35        1.0     0.470466     0.995035     0.618677    Uiso  ? C
   C35        1.0     0.470466     0.995035     0.761534    Uiso  ? C
   C35        1.0     0.470466     0.995035     0.904391    Uiso  ? C
   C35        1.0     0.803799     0.245035     0.047248    Uiso  ? C
   C35        1.0     0.803799     0.245035     0.190105    Uiso  ? C
   C35        1.0     0.803799     0.245035     0.332962    Uiso  ? C
   C35        1.0     0.803799     0.245035     0.475820    Uiso  ? C
   C35        1.0     0.803799     0.245035     0.618677    Uiso  ? C
   C35        1.0     0.803799     0.245035     0.761534    Uiso  ? C
   C35        1.0     0.803799     0.245035     0.904391    Uiso  ? C
   C35        1.0     0.803799     0.495035     0.047248    Uiso  ? C
   C35        1.0     0.803799     0.495035     0.190105    Uiso  ? C
   C35        1.0     0.803799     0.495035     0.332962    Uiso  ? C
   C35        1.0     0.803799     0.495035     0.475820    Uiso  ? C
   C35        1.0     0.803799     0.495035     0.618677    Uiso  ? C
   C35        1.0     0.803799     0.495035     0.761534    Uiso  ? C
   C35        1.0     0.803799     0.495035     0.904391    Uiso  ? C
   C35        1.0     0.803799     0.745035     0.047248    Uiso  ? C
   C35        1.0     0.803799     0.745035     0.190105    Uiso  ? C
   C35        1.0     0.803799     0.745035     0.332962    Uiso  ? C
   C35        1.0     0.803799     0.745035     0.475820    Uiso  ? C
   C35        1.0     0.803799     0.745035     0.618677    Uiso  ? C
   C35        1.0     0.803799     0.745035     0.761534    Uiso  ? C
   C35        1.0     0.803799     0.745035     0.904391    Uiso  ? C
   C35        1.0     0.803799     0.995035     0.047248    Uiso  ? C
   C35        1.0     0.803799     0.995035     0.190105    Uiso  ? C
   C35        1.0     0.803799     0.995035     0.332962    Uiso  ? C
   C35        1.0     0.803799     0.995035     0.475820    Uiso  ? C
   C35        1.0     0.803799     0.995035     0.618677    Uiso  ? C
   C35        1.0     0.803799     0.995035     0.761534    Uiso  ? C
   C35        1.0     0.803799     0.995035     0.904391    Uiso  ? C
   C36        1.0     0.139348     0.131456     0.046393    Uiso  ? C
   C36        1.0     0.139348     0.131456     0.189250    Uiso  ? C
   C36        1.0     0.139348     0.131456     0.332107    Uiso  ? C
   C36        1.0     0.139348     0.131456     0.474964    Uiso  ? C
   C36        1.0     0.139348     0.131456     0.617821    Uiso  ? C
   C36        1.0     0.139348     0.131456     0.760678    Uiso  ? C
   C36        1.0     0.139348     0.131456     0.903535    Uiso  ? C
   C36        1.0     0.139348     0.381456     0.046393    Uiso  ? C
   C36        1.0     0.139348     0.381456     0.189250    Uiso  ? C
   C36        1.0     0.139348     0.381456     0.332107    Uiso  ? C
   C36        1.0     0.139348     0.381456     0.474964    Uiso  ? C
   C36        1.0     0.139348     0.381456     0.617821    Uiso  ? C
   C36        1.0     0.139348     0.381456     0.760678    Uiso  ? C
   C36        1.0     0.139348     0.381456     0.903535    Uiso  ? C
   C36        1.0     0.139348     0.631456     0.046393    Uiso  ? C
   C36        1.0     0.139348     0.631456     0.189250    Uiso  ? C
   C36        1.0     0.139348     0.631456     0.332107    Uiso  ? C
   C36        1.0     0.139348     0.631456     0.474964    Uiso  ? C
   C36        1.0     0.139348     0.631456     0.617821    Uiso  ? C
   C36        1.0     0.139348     0.631456     0.760678    Uiso  ? C
   C36        1.0     0.139348     0.631456     0.903535    Uiso  ? C
   C36        1.0     0.139348     0.881456     0.046393    Uiso  ? C
   C36        1.0     0.139348     0.881456     0.189250    Uiso  ? C
   C36        1.0     0.139348     0.881456     0.332107    Uiso  ? C
   C36        1.0     0.139348     0.881456     0.474964    Uiso  ? C
   C36        1.0     0.139348     0.881456     0.617821    Uiso  ? C
   C36        1.0     0.139348     0.881456     0.760678    Uiso  ? C
   C36        1.0     0.139348     0.881456     0.903535    Uiso  ? C
   C36        1.0     0.472681     0.131456     0.046393    Uiso  ? C
   C36        1.0     0.472681     0.131456     0.189250    Uiso  ? C
   C36        1.0     0.472681     0.131456     0.332107    Uiso  ? C
   C36        1.0     0.472681     0.131456     0.474964    Uiso  ? C
   C36        1.0     0.472681     0.131456     0.617821    Uiso  ? C
   C36        1.0     0.472681     0.131456     0.760678    Uiso  ? C
   C36        1.0     0.472681     0.131456     0.903535    Uiso  ? C
   C36        1.0     0.472681     0.381456     0.046393    Uiso  ? C
   C36        1.0     0.472681     0.381456     0.189250    Uiso  ? C
   C36        1.0     0.472681     0.381456     0.332107    Uiso  ? C
   C36        1.0     0.472681     0.381456     0.474964    Uiso  ? C
   C36        1.0     0.472681     0.381456     0.617821    Uiso  ? C
   C36        1.0     0.472681     0.381456     0.760678    Uiso  ? C
   C36        1.0     0.472681     0.381456     0.903535    Uiso  ? C
   C36        1.0     0.472681     0.631456     0.046393    Uiso  ? C
   C36        1.0     0.472681     0.631456     0.189250    Uiso  ? C
   C36        1.0     0.472681     0.631456     0.332107    Uiso  ? C
   C36        1.0     0.472681     0.631456     0.474964    Uiso  ? C
   C36        1.0     0.472681     0.631456     0.617821    Uiso  ? C
   C36        1.0     0.472681     0.631456     0.760678    Uiso  ? C
   C36        1.0     0.472681     0.631456     0.903535    Uiso  ? C
   C36        1.0     0.472681     0.881456     0.046393    Uiso  ? C
   C36        1.0     0.472681     0.881456     0.189250    Uiso  ? C
   C36        1.0     0.472681     0.881456     0.332107    Uiso  ? C
   C36        1.0     0.472681     0.881456     0.474964    Uiso  ? C
   C36        1.0     0.472681     0.881456     0.617821    Uiso  ? C
   C36        1.0     0.472681     0.881456     0.760678    Uiso  ? C
   C36        1.0     0.472681     0.881456     0.903535    Uiso  ? C
   C36        1.0     0.806015     0.131456     0.046393    Uiso  ? C
   C36        1.0     0.806015     0.131456     0.189250    Uiso  ? C
   C36        1.0     0.806015     0.131456     0.332107    Uiso  ? C
   C36        1.0     0.806015     0.131456     0.474964    Uiso  ? C
   C36        1.0     0.806015     0.131456     0.617821    Uiso  ? C
   C36        1.0     0.806015     0.131456     0.760678    Uiso  ? C
   C36        1.0     0.806015     0.131456     0.903535    Uiso  ? C
   C36        1.0     0.806015     0.381456     0.046393    Uiso  ? C
   C36        1.0     0.806015     0.381456     0.189250    Uiso  ? C
   C36        1.0     0.806015     0.381456     0.332107    Uiso  ? C
   C36        1.0     0.806015     0.381456     0.474964    Uiso  ? C
   C36        1.0     0.806015     0.381456     0.617821    Uiso  ? C
   C36        1.0     0.806015     0.381456     0.760678    Uiso  ? C
   C36        1.0     0.806015     0.381456     0.903535    Uiso  ? C
   C36        1.0     0.806015     0.631456     0.046393    Uiso  ? C
   C36        1.0     0.806015     0.631456     0.189250    Uiso  ? C
   C36        1.0     0.806015     0.631456     0.332107    Uiso  ? C
   C36        1.0     0.806015     0.631456     0.474964    Uiso  ? C
   C36        1.0     0.806015     0.631456     0.617821    Uiso  ? C
   C36        1.0     0.806015     0.631456     0.760678    Uiso  ? C
   C36        1.0     0.806015     0.631456     0.903535    Uiso  ? C
   C36        1.0     0.806015     0.881456     0.046393    Uiso  ? C
   C36        1.0     0.806015     0.881456     0.189250    Uiso  ? C
   C36        1.0     0.806015     0.881456     0.332107    Uiso  ? C
   C36        1.0     0.806015     0.881456     0.474964    Uiso  ? C
   C36        1.0     0.806015     0.881456     0.617821    Uiso  ? C
   C36        1.0     0.806015     0.881456     0.760678    Uiso  ? C
   C36        1.0     0.806015     0.881456     0.903535    Uiso  ? C
   C37        1.0     0.292559     0.245102     0.044166    Uiso  ? C
   C37        1.0     0.292559     0.245102     0.187024    Uiso  ? C
   C37        1.0     0.292559     0.245102     0.329881    Uiso  ? C
   C37        1.0     0.292559     0.245102     0.472738    Uiso  ? C
   C37        1.0     0.292559     0.245102     0.615595    Uiso  ? C
   C37        1.0     0.292559     0.245102     0.758452    Uiso  ? C
   C37        1.0     0.292559     0.245102     0.901309    Uiso  ? C
   C37        1.0     0.292559     0.495102     0.044166    Uiso  ? C
   C37        1.0     0.292559     0.495102     0.187024    Uiso  ? C
   C37        1.0     0.292559     0.495102     0.329881    Uiso  ? C
   C37        1.0     0.292559     0.495102     0.472738    Uiso  ? C
   C37        1.0     0.292559     0.495102     0.615595    Uiso  ? C
   C37        1.0     0.292559     0.495102     0.758452    Uiso  ? C
   C37        1.0     0.292559     0.495102     0.901309    Uiso  ? C
   C37        1.0     0.292559     0.745102     0.044166    Uiso  ? C
   C37        1.0     0.292559     0.745102     0.187024    Uiso  ? C
   C37        1.0     0.292559     0.745102     0.329881    Uiso  ? C
   C37        1.0     0.292559     0.745102     0.472738    Uiso  ? C
   C37        1.0     0.292559     0.745102     0.615595    Uiso  ? C
   C37        1.0     0.292559     0.745102     0.758452    Uiso  ? C
   C37        1.0     0.292559     0.745102     0.901309    Uiso  ? C
   C37        1.0     0.292559     0.995102     0.044166    Uiso  ? C
   C37        1.0     0.292559     0.995102     0.187024    Uiso  ? C
   C37        1.0     0.292559     0.995102     0.329881    Uiso  ? C
   C37        1.0     0.292559     0.995102     0.472738    Uiso  ? C
   C37        1.0     0.292559     0.995102     0.615595    Uiso  ? C
   C37        1.0     0.292559     0.995102     0.758452    Uiso  ? C
   C37        1.0     0.292559     0.995102     0.901309    Uiso  ? C
   C37        1.0     0.625893     0.245102     0.044166    Uiso  ? C
   C37        1.0     0.625893     0.245102     0.187024    Uiso  ? C
   C37        1.0     0.625893     0.245102     0.329881    Uiso  ? C
   C37        1.0     0.625893     0.245102     0.472738    Uiso  ? C
   C37        1.0     0.625893     0.245102     0.615595    Uiso  ? C
   C37        1.0     0.625893     0.245102     0.758452    Uiso  ? C
   C37        1.0     0.625893     0.245102     0.901309    Uiso  ? C
   C37        1.0     0.625893     0.495102     0.044166    Uiso  ? C
   C37        1.0     0.625893     0.495102     0.187024    Uiso  ? C
   C37        1.0     0.625893     0.495102     0.329881    Uiso  ? C
   C37        1.0     0.625893     0.495102     0.472738    Uiso  ? C
   C37        1.0     0.625893     0.495102     0.615595    Uiso  ? C
   C37        1.0     0.625893     0.495102     0.758452    Uiso  ? C
   C37        1.0     0.625893     0.495102     0.901309    Uiso  ? C
   C37        1.0     0.625893     0.745102     0.044166    Uiso  ? C
   C37        1.0     0.625893     0.745102     0.187024    Uiso  ? C
   C37        1.0     0.625893     0.745102     0.329881    Uiso  ? C
   C37        1.0     0.625893     0.745102     0.472738    Uiso  ? C
   C37        1.0     0.625893     0.745102     0.615595    Uiso  ? C
   C37        1.0     0.625893     0.745102     0.758452    Uiso  ? C
   C37        1.0     0.625893     0.745102     0.901309    Uiso  ? C
   C37        1.0     0.625893     0.995102     0.044166    Uiso  ? C
   C37        1.0     0.625893     0.995102     0.187024    Uiso  ? C
   C37        1.0     0.625893     0.995102     0.329881    Uiso  ? C
   C37        1.0     0.625893     0.995102     0.472738    Uiso  ? C
   C37        1.0     0.625893     0.995102     0.615595    Uiso  ? C
   C37        1.0     0.625893     0.995102     0.758452    Uiso  ? C
   C37        1.0     0.625893     0.995102     0.901309    Uiso  ? C
   C37        1.0     0.959226     0.245102     0.044166    Uiso  ? C
   C37        1.0     0.959226     0.245102     0.187024    Uiso  ? C
   C37        1.0     0.959226     0.245102     0.329881    Uiso  ? C
   C37        1.0     0.959226     0.245102     0.472738    Uiso  ? C
   C37        1.0     0.959226     0.245102     0.615595    Uiso  ? C
   C37        1.0     0.959226     0.245102     0.758452    Uiso  ? C
   C37        1.0     0.959226     0.245102     0.901309    Uiso  ? C
   C37        1.0     0.959226     0.495102     0.044166    Uiso  ? C
   C37        1.0     0.959226     0.495102     0.187024    Uiso  ? C
   C37        1.0     0.959226     0.495102     0.329881    Uiso  ? C
   C37        1.0     0.959226     0.495102     0.472738    Uiso  ? C
   C37        1.0     0.959226     0.495102     0.615595    Uiso  ? C
   C37        1.0     0.959226     0.495102     0.758452    Uiso  ? C
   C37        1.0     0.959226     0.495102     0.901309    Uiso  ? C
   C37        1.0     0.959226     0.745102     0.044166    Uiso  ? C
   C37        1.0     0.959226     0.745102     0.187024    Uiso  ? C
   C37        1.0     0.959226     0.745102     0.329881    Uiso  ? C
   C37        1.0     0.959226     0.745102     0.472738    Uiso  ? C
   C37        1.0     0.959226     0.745102     0.615595    Uiso  ? C
   C37        1.0     0.959226     0.745102     0.758452    Uiso  ? C
   C37        1.0     0.959226     0.745102     0.901309    Uiso  ? C
   C37        1.0     0.959226     0.995102     0.044166    Uiso  ? C
   C37        1.0     0.959226     0.995102     0.187024    Uiso  ? C
   C37        1.0     0.959226     0.995102     0.329881    Uiso  ? C
   C37        1.0     0.959226     0.995102     0.472738    Uiso  ? C
   C37        1.0     0.959226     0.995102     0.615595    Uiso  ? C
   C37        1.0     0.959226     0.995102     0.758452    Uiso  ? C
   C37        1.0     0.959226     0.995102     0.901309    Uiso  ? C
   C38        1.0     0.151755     0.224960     0.043233    Uiso  ? C
   C38        1.0     0.151755     0.224960     0.186090    Uiso  ? C
   C38        1.0     0.151755     0.224960     0.328947    Uiso  ? C
   C38        1.0     0.151755     0.224960     0.471805    Uiso  ? C
   C38        1.0     0.151755     0.224960     0.614662    Uiso  ? C
   C38        1.0     0.151755     0.224960     0.757519    Uiso  ? C
   C38        1.0     0.151755     0.224960     0.900376    Uiso  ? C
   C38        1.0     0.151755     0.474961     0.043233    Uiso  ? C
   C38        1.0     0.151755     0.474961     0.186090    Uiso  ? C
   C38        1.0     0.151755     0.474961     0.328947    Uiso  ? C
   C38        1.0     0.151755     0.474961     0.471805    Uiso  ? C
   C38        1.0     0.151755     0.474961     0.614662    Uiso  ? C
   C38        1.0     0.151755     0.474961     0.757519    Uiso  ? C
   C38        1.0     0.151755     0.474961     0.900376    Uiso  ? C
   C38        1.0     0.151755     0.724961     0.043233    Uiso  ? C
   C38        1.0     0.151755     0.724961     0.186090    Uiso  ? C
   C38        1.0     0.151755     0.724961     0.328947    Uiso  ? C
   C38        1.0     0.151755     0.724961     0.471805    Uiso  ? C
   C38        1.0     0.151755     0.724961     0.614662    Uiso  ? C
   C38        1.0     0.151755     0.724961     0.757519    Uiso  ? C
   C38        1.0     0.151755     0.724961     0.900376    Uiso  ? C
   C38        1.0     0.151755     0.974961     0.043233    Uiso  ? C
   C38        1.0     0.151755     0.974961     0.186090    Uiso  ? C
   C38        1.0     0.151755     0.974961     0.328947    Uiso  ? C
   C38        1.0     0.151755     0.974961     0.471805    Uiso  ? C
   C38        1.0     0.151755     0.974961     0.614662    Uiso  ? C
   C38        1.0     0.151755     0.974961     0.757519    Uiso  ? C
   C38        1.0     0.151755     0.974961     0.900376    Uiso  ? C
   C38        1.0     0.485088     0.224960     0.043233    Uiso  ? C
   C38        1.0     0.485088     0.224960     0.186090    Uiso  ? C
   C38        1.0     0.485088     0.224960     0.328947    Uiso  ? C
   C38        1.0     0.485088     0.224960     0.471805    Uiso  ? C
   C38        1.0     0.485088     0.224960     0.614662    Uiso  ? C
   C38        1.0     0.485088     0.224960     0.757519    Uiso  ? C
   C38        1.0     0.485088     0.224960     0.900376    Uiso  ? C
   C38        1.0     0.485088     0.474961     0.043233    Uiso  ? C
   C38        1.0     0.485088     0.474961     0.186090    Uiso  ? C
   C38        1.0     0.485088     0.474961     0.328947    Uiso  ? C
   C38        1.0     0.485088     0.474961     0.471805    Uiso  ? C
   C38        1.0     0.485088     0.474961     0.614662    Uiso  ? C
   C38        1.0     0.485088     0.474961     0.757519    Uiso  ? C
   C38        1.0     0.485088     0.474961     0.900376    Uiso  ? C
   C38        1.0     0.485088     0.724961     0.043233    Uiso  ? C
   C38        1.0     0.485088     0.724961     0.186090    Uiso  ? C
   C38        1.0     0.485088     0.724961     0.328947    Uiso  ? C
   C38        1.0     0.485088     0.724961     0.471805    Uiso  ? C
   C38        1.0     0.485088     0.724961     0.614662    Uiso  ? C
   C38        1.0     0.485088     0.724961     0.757519    Uiso  ? C
   C38        1.0     0.485088     0.724961     0.900376    Uiso  ? C
   C38        1.0     0.485088     0.974961     0.043233    Uiso  ? C
   C38        1.0     0.485088     0.974961     0.186090    Uiso  ? C
   C38        1.0     0.485088     0.974961     0.328947    Uiso  ? C
   C38        1.0     0.485088     0.974961     0.471805    Uiso  ? C
   C38        1.0     0.485088     0.974961     0.614662    Uiso  ? C
   C38        1.0     0.485088     0.974961     0.757519    Uiso  ? C
   C38        1.0     0.485088     0.974961     0.900376    Uiso  ? C
   C38        1.0     0.818422     0.224960     0.043233    Uiso  ? C
   C38        1.0     0.818422     0.224960     0.186090    Uiso  ? C
   C38        1.0     0.818422     0.224960     0.328947    Uiso  ? C
   C38        1.0     0.818422     0.224960     0.471805    Uiso  ? C
   C38        1.0     0.818422     0.224960     0.614662    Uiso  ? C
   C38        1.0     0.818422     0.224960     0.757519    Uiso  ? C
   C38        1.0     0.818422     0.224960     0.900376    Uiso  ? C
   C38        1.0     0.818422     0.474961     0.043233    Uiso  ? C
   C38        1.0     0.818422     0.474961     0.186090    Uiso  ? C
   C38        1.0     0.818422     0.474961     0.328947    Uiso  ? C
   C38        1.0     0.818422     0.474961     0.471805    Uiso  ? C
   C38        1.0     0.818422     0.474961     0.614662    Uiso  ? C
   C38        1.0     0.818422     0.474961     0.757519    Uiso  ? C
   C38        1.0     0.818422     0.474961     0.900376    Uiso  ? C
   C38        1.0     0.818422     0.724961     0.043233    Uiso  ? C
   C38        1.0     0.818422     0.724961     0.186090    Uiso  ? C
   C38        1.0     0.818422     0.724961     0.328947    Uiso  ? C
   C38        1.0     0.818422     0.724961     0.471805    Uiso  ? C
   C38        1.0     0.818422     0.724961     0.614662    Uiso  ? C
   C38        1.0     0.818422     0.724961     0.757519    Uiso  ? C
   C38        1.0     0.818422     0.724961     0.900376    Uiso  ? C
   C38        1.0     0.818422     0.974961     0.043233    Uiso  ? C
   C38        1.0     0.818422     0.974961     0.186090    Uiso  ? C
   C38        1.0     0.818422     0.974961     0.328947    Uiso  ? C
   C38        1.0     0.818422     0.974961     0.471805    Uiso  ? C
   C38        1.0     0.818422     0.974961     0.614662    Uiso  ? C
   C38        1.0     0.818422     0.974961     0.757519    Uiso  ? C
   C38        1.0     0.818422     0.974961     0.900376    Uiso  ? C
   C39        1.0     0.293468     0.128715     0.042957    Uiso  ? C
   C39        1.0     0.293468     0.128715     0.185815    Uiso  ? C
   C39        1.0     0.293468     0.128715     0.328672    Uiso  ? C
   C39        1.0     0.293468     0.128715     0.471529    Uiso  ? C
   C39        1.0     0.293468     0.128715     0.614386    Uiso  ? C
   C39        1.0     0.293468     0.128715     0.757243    Uiso  ? C
   C39        1.0     0.293468     0.128715     0.900100    Uiso  ? C
   C39        1.0     0.293468     0.378715     0.042957    Uiso  ? C
   C39        1.0     0.293468     0.378715     0.185815    Uiso  ? C
   C39        1.0     0.293468     0.378715     0.328672    Uiso  ? C
   C39        1.0     0.293468     0.378715     0.471529    Uiso  ? C
   C39        1.0     0.293468     0.378715     0.614386    Uiso  ? C
   C39        1.0     0.293468     0.378715     0.757243    Uiso  ? C
   C39        1.0     0.293468     0.378715     0.900100    Uiso  ? C
   C39        1.0     0.293468     0.628715     0.042957    Uiso  ? C
   C39        1.0     0.293468     0.628715     0.185815    Uiso  ? C
   C39        1.0     0.293468     0.628715     0.328672    Uiso  ? C
   C39        1.0     0.293468     0.628715     0.471529    Uiso  ? C
   C39        1.0     0.293468     0.628715     0.614386    Uiso  ? C
   C39        1.0     0.293468     0.628715     0.757243    Uiso  ? C
   C39        1.0     0.293468     0.628715     0.900100    Uiso  ? C
   C39        1.0     0.293468     0.878715     0.042957    Uiso  ? C
   C39        1.0     0.293468     0.878715     0.185815    Uiso  ? C
   C39        1.0     0.293468     0.878715     0.328672    Uiso  ? C
   C39        1.0     0.293468     0.878715     0.471529    Uiso  ? C
   C39        1.0     0.293468     0.878715     0.614386    Uiso  ? C
   C39        1.0     0.293468     0.878715     0.757243    Uiso  ? C
   C39        1.0     0.293468     0.878715     0.900100    Uiso  ? C
   C39        1.0     0.626802     0.128715     0.042957    Uiso  ? C
   C39        1.0     0.626802     0.128715     0.185815    Uiso  ? C
   C39        1.0     0.626802     0.128715     0.328672    Uiso  ? C
   C39        1.0     0.626802     0.128715     0.471529    Uiso  ? C
   C39        1.0     0.626802     0.128715     0.614386    Uiso  ? C
   C39        1.0     0.626802     0.128715     0.757243    Uiso  ? C
   C39        1.0     0.626802     0.128715     0.900100    Uiso  ? C
   C39        1.0     0.626802     0.378715     0.042957    Uiso  ? C
   C39        1.0     0.626802     0.378715     0.185815    Uiso  ? C
   C39        1.0     0.626802     0.378715     0.328672    Uiso  ? C
   C39        1.0     0.626802     0.378715     0.471529    Uiso  ? C
   C39        1.0     0.626802     0.378715     0.614386    Uiso  ? C
   C39        1.0     0.626802     0.378715     0.757243    Uiso  ? C
   C39        1.0     0.626802     0.378715     0.900100    Uiso  ? C
   C39        1.0     0.626802     0.628715     0.042957    Uiso  ? C
   C39        1.0     0.626802     0.628715     0.185815    Uiso  ? C
   C39        1.0     0.626802     0.628715     0.328672    Uiso  ? C
   C39        1.0     0.626802     0.628715     0.471529    Uiso  ? C
   C39        1.0     0.626802     0.628715     0.614386    Uiso  ? C
   C39        1.0     0.626802     0.628715     0.757243    Uiso  ? C
   C39        1.0     0.626802     0.628715     0.900100    Uiso  ? C
   C39        1.0     0.626802     0.878715     0.042957    Uiso  ? C
   C39        1.0     0.626802     0.878715     0.185815    Uiso  ? C
   C39        1.0     0.626802     0.878715     0.328672    Uiso  ? C
   C39        1.0     0.626802     0.878715     0.471529    Uiso  ? C
   C39        1.0     0.626802     0.878715     0.614386    Uiso  ? C
   C39        1.0     0.626802     0.878715     0.757243    Uiso  ? C
   C39        1.0     0.626802     0.878715     0.900100    Uiso  ? C
   C39        1.0     0.960135     0.128715     0.042957    Uiso  ? C
   C39        1.0     0.960135     0.128715     0.185815    Uiso  ? C
   C39        1.0     0.960135     0.128715     0.328672    Uiso  ? C
   C39        1.0     0.960135     0.128715     0.471529    Uiso  ? C
   C39        1.0     0.960135     0.128715     0.614386    Uiso  ? C
   C39        1.0     0.960135     0.128715     0.757243    Uiso  ? C
   C39        1.0     0.960135     0.128715     0.900100    Uiso  ? C
   C39        1.0     0.960135     0.378715     0.042957    Uiso  ? C
   C39        1.0     0.960135     0.378715     0.185815    Uiso  ? C
   C39        1.0     0.960135     0.378715     0.328672    Uiso  ? C
   C39        1.0     0.960135     0.378715     0.471529    Uiso  ? C
   C39        1.0     0.960135     0.378715     0.614386    Uiso  ? C
   C39        1.0     0.960135     0.378715     0.757243    Uiso  ? C
   C39        1.0     0.960135     0.378715     0.900100    Uiso  ? C
   C39        1.0     0.960135     0.628715     0.042957    Uiso  ? C
   C39        1.0     0.960135     0.628715     0.185815    Uiso  ? C
   C39        1.0     0.960135     0.628715     0.328672    Uiso  ? C
   C39        1.0     0.960135     0.628715     0.471529    Uiso  ? C
   C39        1.0     0.960135     0.628715     0.614386    Uiso  ? C
   C39        1.0     0.960135     0.628715     0.757243    Uiso  ? C
   C39        1.0     0.960135     0.628715     0.900100    Uiso  ? C
   C39        1.0     0.960135     0.878715     0.042957    Uiso  ? C
   C39        1.0     0.960135     0.878715     0.185815    Uiso  ? C
   C39        1.0     0.960135     0.878715     0.328672    Uiso  ? C
   C39        1.0     0.960135     0.878715     0.471529    Uiso  ? C
   C39        1.0     0.960135     0.878715     0.614386    Uiso  ? C
   C39        1.0     0.960135     0.878715     0.757243    Uiso  ? C
   C39        1.0     0.960135     0.878715     0.900100    Uiso  ? C
   C40        1.0     0.153869     0.151676     0.042458    Uiso  ? C
   C40        1.0     0.153869     0.151676     0.185315    Uiso  ? C
   C40        1.0     0.153869     0.151676     0.328172    Uiso  ? C
   C40        1.0     0.153869     0.151676     0.471029    Uiso  ? C
   C40        1.0     0.153869     0.151676     0.613886    Uiso  ? C
   C40        1.0     0.153869     0.151676     0.756743    Uiso  ? C
   C40        1.0     0.153869     0.151676     0.899601    Uiso  ? C
   C40        1.0     0.153869     0.401676     0.042458    Uiso  ? C
   C40        1.0     0.153869     0.401676     0.185315    Uiso  ? C
   C40        1.0     0.153869     0.401676     0.328172    Uiso  ? C
   C40        1.0     0.153869     0.401676     0.471029    Uiso  ? C
   C40        1.0     0.153869     0.401676     0.613886    Uiso  ? C
   C40        1.0     0.153869     0.401676     0.756743    Uiso  ? C
   C40        1.0     0.153869     0.401676     0.899601    Uiso  ? C
   C40        1.0     0.153869     0.651676     0.042458    Uiso  ? C
   C40        1.0     0.153869     0.651676     0.185315    Uiso  ? C
   C40        1.0     0.153869     0.651676     0.328172    Uiso  ? C
   C40        1.0     0.153869     0.651676     0.471029    Uiso  ? C
   C40        1.0     0.153869     0.651676     0.613886    Uiso  ? C
   C40        1.0     0.153869     0.651676     0.756743    Uiso  ? C
   C40        1.0     0.153869     0.651676     0.899601    Uiso  ? C
   C40        1.0     0.153869     0.901676     0.042458    Uiso  ? C
   C40        1.0     0.153869     0.901676     0.185315    Uiso  ? C
   C40        1.0     0.153869     0.901676     0.328172    Uiso  ? C
   C40        1.0     0.153869     0.901676     0.471029    Uiso  ? C
   C40        1.0     0.153869     0.901676     0.613886    Uiso  ? C
   C40        1.0     0.153869     0.901676     0.756743    Uiso  ? C
   C40        1.0     0.153869     0.901676     0.899601    Uiso  ? C
   C40        1.0     0.487202     0.151676     0.042458    Uiso  ? C
   C40        1.0     0.487202     0.151676     0.185315    Uiso  ? C
   C40        1.0     0.487202     0.151676     0.328172    Uiso  ? C
   C40        1.0     0.487202     0.151676     0.471029    Uiso  ? C
   C40        1.0     0.487202     0.151676     0.613886    Uiso  ? C
   C40        1.0     0.487202     0.151676     0.756743    Uiso  ? C
   C40        1.0     0.487202     0.151676     0.899601    Uiso  ? C
   C40        1.0     0.487202     0.401676     0.042458    Uiso  ? C
   C40        1.0     0.487202     0.401676     0.185315    Uiso  ? C
   C40        1.0     0.487202     0.401676     0.328172    Uiso  ? C
   C40        1.0     0.487202     0.401676     0.471029    Uiso  ? C
   C40        1.0     0.487202     0.401676     0.613886    Uiso  ? C
   C40        1.0     0.487202     0.401676     0.756743    Uiso  ? C
   C40        1.0     0.487202     0.401676     0.899601    Uiso  ? C
   C40        1.0     0.487202     0.651676     0.042458    Uiso  ? C
   C40        1.0     0.487202     0.651676     0.185315    Uiso  ? C
   C40        1.0     0.487202     0.651676     0.328172    Uiso  ? C
   C40        1.0     0.487202     0.651676     0.471029    Uiso  ? C
   C40        1.0     0.487202     0.651676     0.613886    Uiso  ? C
   C40        1.0     0.487202     0.651676     0.756743    Uiso  ? C
   C40        1.0     0.487202     0.651676     0.899601    Uiso  ? C
   C40        1.0     0.487202     0.901676     0.042458    Uiso  ? C
   C40        1.0     0.487202     0.901676     0.185315    Uiso  ? C
   C40        1.0     0.487202     0.901676     0.328172    Uiso  ? C
   C40        1.0     0.487202     0.901676     0.471029    Uiso  ? C
   C40        1.0     0.487202     0.901676     0.613886    Uiso  ? C
   C40        1.0     0.487202     0.901676     0.756743    Uiso  ? C
   C40        1.0     0.487202     0.901676     0.899601    Uiso  ? C
   C40        1.0     0.820536     0.151676     0.042458    Uiso  ? C
   C40        1.0     0.820536     0.151676     0.185315    Uiso  ? C
   C40        1.0     0.820536     0.151676     0.328172    Uiso  ? C
   C40        1.0     0.820536     0.151676     0.471029    Uiso  ? C
   C40        1.0     0.820536     0.151676     0.613886    Uiso  ? C
   C40        1.0     0.820536     0.151676     0.756743    Uiso  ? C
   C40        1.0     0.820536     0.151676     0.899601    Uiso  ? C
   C40        1.0     0.820536     0.401676     0.042458    Uiso  ? C
   C40        1.0     0.820536     0.401676     0.185315    Uiso  ? C
   C40        1.0     0.820536     0.401676     0.328172    Uiso  ? C
   C40        1.0     0.820536     0.401676     0.471029    Uiso  ? C
   C40        1.0     0.820536     0.401676     0.613886    Uiso  ? C
   C40        1.0     0.820536     0.401676     0.756743    Uiso  ? C
   C40        1.0     0.820536     0.401676     0.899601    Uiso  ? C
   C40        1.0     0.820536     0.651676     0.042458    Uiso  ? C
   C40        1.0     0.820536     0.651676     0.185315    Uiso  ? C
   C40        1.0     0.820536     0.651676     0.328172    Uiso  ? C
   C40        1.0     0.820536     0.651676     0.471029    Uiso  ? C
   C40        1.0     0.820536     0.651676     0.613886    Uiso  ? C
   C40        1.0     0.820536     0.651676     0.756743    Uiso  ? C
   C40        1.0     0.820536     0.651676     0.899601    Uiso  ? C
   C40        1.0     0.820536     0.901676     0.042458    Uiso  ? C
   C40        1.0     0.820536     0.901676     0.185315    Uiso  ? C
   C40        1.0     0.820536     0.901676     0.328172    Uiso  ? C
   C40        1.0     0.820536     0.901676     0.471029    Uiso  ? C
   C40        1.0     0.820536     0.901676     0.613886    Uiso  ? C
   C40        1.0     0.820536     0.901676     0.756743    Uiso  ? C
   C40        1.0     0.820536     0.901676     0.899601    Uiso  ? C
   C41        1.0     0.276542     0.223575     0.040819    Uiso  ? C
   C41        1.0     0.276542     0.223575     0.183676    Uiso  ? C
   C41        1.0     0.276542     0.223575     0.326533    Uiso  ? C
   C41        1.0     0.276542     0.223575     0.469390    Uiso  ? C
   C41        1.0     0.276542     0.223575     0.612247    Uiso  ? C
   C41        1.0     0.276542     0.223575     0.755105    Uiso  ? C
   C41        1.0     0.276542     0.223575     0.897962    Uiso  ? C
   C41        1.0     0.276542     0.473575     0.040819    Uiso  ? C
   C41        1.0     0.276542     0.473575     0.183676    Uiso  ? C
   C41        1.0     0.276542     0.473575     0.326533    Uiso  ? C
   C41        1.0     0.276542     0.473575     0.469390    Uiso  ? C
   C41        1.0     0.276542     0.473575     0.612247    Uiso  ? C
   C41        1.0     0.276542     0.473575     0.755105    Uiso  ? C
   C41        1.0     0.276542     0.473575     0.897962    Uiso  ? C
   C41        1.0     0.276542     0.723575     0.040819    Uiso  ? C
   C41        1.0     0.276542     0.723575     0.183676    Uiso  ? C
   C41        1.0     0.276542     0.723575     0.326533    Uiso  ? C
   C41        1.0     0.276542     0.723575     0.469390    Uiso  ? C
   C41        1.0     0.276542     0.723575     0.612247    Uiso  ? C
   C41        1.0     0.276542     0.723575     0.755105    Uiso  ? C
   C41        1.0     0.276542     0.723575     0.897962    Uiso  ? C
   C41        1.0     0.276542     0.973575     0.040819    Uiso  ? C
   C41        1.0     0.276542     0.973575     0.183676    Uiso  ? C
   C41        1.0     0.276542     0.973575     0.326533    Uiso  ? C
   C41        1.0     0.276542     0.973575     0.469390    Uiso  ? C
   C41        1.0     0.276542     0.973575     0.612247    Uiso  ? C
   C41        1.0     0.276542     0.973575     0.755105    Uiso  ? C
   C41        1.0     0.276542     0.973575     0.897962    Uiso  ? C
   C41        1.0     0.609875     0.223575     0.040819    Uiso  ? C
   C41        1.0     0.609875     0.223575     0.183676    Uiso  ? C
   C41        1.0     0.609875     0.223575     0.326533    Uiso  ? C
   C41        1.0     0.609875     0.223575     0.469390    Uiso  ? C
   C41        1.0     0.609875     0.223575     0.612247    Uiso  ? C
   C41        1.0     0.609875     0.223575     0.755105    Uiso  ? C
   C41        1.0     0.609875     0.223575     0.897962    Uiso  ? C
   C41        1.0     0.609875     0.473575     0.040819    Uiso  ? C
   C41        1.0     0.609875     0.473575     0.183676    Uiso  ? C
   C41        1.0     0.609875     0.473575     0.326533    Uiso  ? C
   C41        1.0     0.609875     0.473575     0.469390    Uiso  ? C
   C41        1.0     0.609875     0.473575     0.612247    Uiso  ? C
   C41        1.0     0.609875     0.473575     0.755105    Uiso  ? C
   C41        1.0     0.609875     0.473575     0.897962    Uiso  ? C
   C41        1.0     0.609875     0.723575     0.040819    Uiso  ? C
   C41        1.0     0.609875     0.723575     0.183676    Uiso  ? C
   C41        1.0     0.609875     0.723575     0.326533    Uiso  ? C
   C41        1.0     0.609875     0.723575     0.469390    Uiso  ? C
   C41        1.0     0.609875     0.723575     0.612247    Uiso  ? C
   C41        1.0     0.609875     0.723575     0.755105    Uiso  ? C
   C41        1.0     0.609875     0.723575     0.897962    Uiso  ? C
   C41        1.0     0.609875     0.973575     0.040819    Uiso  ? C
   C41        1.0     0.609875     0.973575     0.183676    Uiso  ? C
   C41        1.0     0.609875     0.973575     0.326533    Uiso  ? C
   C41        1.0     0.609875     0.973575     0.469390    Uiso  ? C
   C41        1.0     0.609875     0.973575     0.612247    Uiso  ? C
   C41        1.0     0.609875     0.973575     0.755105    Uiso  ? C
   C41        1.0     0.609875     0.973575     0.897962    Uiso  ? C
   C41        1.0     0.943208     0.223575     0.040819    Uiso  ? C
   C41        1.0     0.943208     0.223575     0.183676    Uiso  ? C
   C41        1.0     0.943208     0.223575     0.326533    Uiso  ? C
   C41        1.0     0.943208     0.223575     0.469390    Uiso  ? C
   C41        1.0     0.943208     0.223575     0.612247    Uiso  ? C
   C41        1.0     0.943208     0.223575     0.755105    Uiso  ? C
   C41        1.0     0.943208     0.223575     0.897962    Uiso  ? C
   C41        1.0     0.943208     0.473575     0.040819    Uiso  ? C
   C41        1.0     0.943208     0.473575     0.183676    Uiso  ? C
   C41        1.0     0.943208     0.473575     0.326533    Uiso  ? C
   C41        1.0     0.943208     0.473575     0.469390    Uiso  ? C
   C41        1.0     0.943208     0.473575     0.612247    Uiso  ? C
   C41        1.0     0.943208     0.473575     0.755105    Uiso  ? C
   C41        1.0     0.943208     0.473575     0.897962    Uiso  ? C
   C41        1.0     0.943208     0.723575     0.040819    Uiso  ? C
   C41        1.0     0.943208     0.723575     0.183676    Uiso  ? C
   C41        1.0     0.943208     0.723575     0.326533    Uiso  ? C
   C41        1.0     0.943208     0.723575     0.469390    Uiso  ? C
   C41        1.0     0.943208     0.723575     0.612247    Uiso  ? C
   C41        1.0     0.943208     0.723575     0.755105    Uiso  ? C
   C41        1.0     0.943208     0.723575     0.897962    Uiso  ? C
   C41        1.0     0.943208     0.973575     0.040819    Uiso  ? C
   C41        1.0     0.943208     0.973575     0.183676    Uiso  ? C
   C41        1.0     0.943208     0.973575     0.326533    Uiso  ? C
   C41        1.0     0.943208     0.973575     0.469390    Uiso  ? C
   C41        1.0     0.943208     0.973575     0.612247    Uiso  ? C
   C41        1.0     0.943208     0.973575     0.755105    Uiso  ? C
   C41        1.0     0.943208     0.973575     0.897962    Uiso  ? C
   C42        1.0     0.277305     0.150023     0.039251    Uiso  ? C
   C42        1.0     0.277305     0.150023     0.182109    Uiso  ? C
   C42        1.0     0.277305     0.150023     0.324966    Uiso  ? C
   C42        1.0     0.277305     0.150023     0.467823    Uiso  ? C
   C42        1.0     0.277305     0.150023     0.610680    Uiso  ? C
   C42        1.0     0.277305     0.150023     0.753537    Uiso  ? C
   C42        1.0     0.277305     0.150023     0.896394    Uiso  ? C
   C42        1.0     0.277305     0.400023     0.039251    Uiso  ? C
   C42        1.0     0.277305     0.400023     0.182109    Uiso  ? C
   C42        1.0     0.277305     0.400023     0.324966    Uiso  ? C
   C42        1.0     0.277305     0.400023     0.467823    Uiso  ? C
   C42        1.0     0.277305     0.400023     0.610680    Uiso  ? C
   C42        1.0     0.277305     0.400023     0.753537    Uiso  ? C
   C42        1.0     0.277305     0.400023     0.896394    Uiso  ? C
   C42        1.0     0.277305     0.650023     0.039251    Uiso  ? C
   C42        1.0     0.277305     0.650023     0.182109    Uiso  ? C
   C42        1.0     0.277305     0.650023     0.324966    Uiso  ? C
   C42        1.0     0.277305     0.650023     0.467823    Uiso  ? C
   C42        1.0     0.277305     0.650023     0.610680    Uiso  ? C
   C42        1.0     0.277305     0.650023     0.753537    Uiso  ? C
   C42        1.0     0.277305     0.650023     0.896394    Uiso  ? C
   C42        1.0     0.277305     0.900023     0.039251    Uiso  ? C
   C42        1.0     0.277305     0.900023     0.182109    Uiso  ? C
   C42        1.0     0.277305     0.900023     0.324966    Uiso  ? C
   C42        1.0     0.277305     0.900023     0.467823    Uiso  ? C
   C42        1.0     0.277305     0.900023     0.610680    Uiso  ? C
   C42        1.0     0.277305     0.900023     0.753537    Uiso  ? C
   C42        1.0     0.277305     0.900023     0.896394    Uiso  ? C
   C42        1.0     0.610638     0.150023     0.039251    Uiso  ? C
   C42        1.0     0.610638     0.150023     0.182109    Uiso  ? C
   C42        1.0     0.610638     0.150023     0.324966    Uiso  ? C
   C42        1.0     0.610638     0.150023     0.467823    Uiso  ? C
   C42        1.0     0.610638     0.150023     0.610680    Uiso  ? C
   C42        1.0     0.610638     0.150023     0.753537    Uiso  ? C
   C42        1.0     0.610638     0.150023     0.896394    Uiso  ? C
   C42        1.0     0.610638     0.400023     0.039251    Uiso  ? C
   C42        1.0     0.610638     0.400023     0.182109    Uiso  ? C
   C42        1.0     0.610638     0.400023     0.324966    Uiso  ? C
   C42        1.0     0.610638     0.400023     0.467823    Uiso  ? C
   C42        1.0     0.610638     0.400023     0.610680    Uiso  ? C
   C42        1.0     0.610638     0.400023     0.753537    Uiso  ? C
   C42        1.0     0.610638     0.400023     0.896394    Uiso  ? C
   C42        1.0     0.610638     0.650023     0.039251    Uiso  ? C
   C42        1.0     0.610638     0.650023     0.182109    Uiso  ? C
   C42        1.0     0.610638     0.650023     0.324966    Uiso  ? C
   C42        1.0     0.610638     0.650023     0.467823    Uiso  ? C
   C42        1.0     0.610638     0.650023     0.610680    Uiso  ? C
   C42        1.0     0.610638     0.650023     0.753537    Uiso  ? C
   C42        1.0     0.610638     0.650023     0.896394    Uiso  ? C
   C42        1.0     0.610638     0.900023     0.039251    Uiso  ? C
   C42        1.0     0.610638     0.900023     0.182109    Uiso  ? C
   C42        1.0     0.610638     0.900023     0.324966    Uiso  ? C
   C42        1.0     0.610638     0.900023     0.467823    Uiso  ? C
   C42        1.0     0.610638     0.900023     0.610680    Uiso  ? C
   C42        1.0     0.610638     0.900023     0.753537    Uiso  ? C
   C42        1.0     0.610638     0.900023     0.896394    Uiso  ? C
   C42        1.0     0.943971     0.150023     0.039251    Uiso  ? C
   C42        1.0     0.943971     0.150023     0.182109    Uiso  ? C
   C42        1.0     0.943971     0.150023     0.324966    Uiso  ? C
   C42        1.0     0.943971     0.150023     0.467823    Uiso  ? C
   C42        1.0     0.943971     0.150023     0.610680    Uiso  ? C
   C42        1.0     0.943971     0.150023     0.753537    Uiso  ? C
   C42        1.0     0.943971     0.150023     0.896394    Uiso  ? C
   C42        1.0     0.943971     0.400023     0.039251    Uiso  ? C
   C42        1.0     0.943971     0.400023     0.182109    Uiso  ? C
   C42        1.0     0.943971     0.400023     0.324966    Uiso  ? C
   C42        1.0     0.943971     0.400023     0.467823    Uiso  ? C
   C42        1.0     0.943971     0.400023     0.610680    Uiso  ? C
   C42        1.0     0.943971     0.400023     0.753537    Uiso  ? C
   C42        1.0     0.943971     0.400023     0.896394    Uiso  ? C
   C42        1.0     0.943971     0.650023     0.039251    Uiso  ? C
   C42        1.0     0.943971     0.650023     0.182109    Uiso  ? C
   C42        1.0     0.943971     0.650023     0.324966    Uiso  ? C
   C42        1.0     0.943971     0.650023     0.467823    Uiso  ? C
   C42        1.0     0.943971     0.650023     0.610680    Uiso  ? C
   C42        1.0     0.943971     0.650023     0.753537    Uiso  ? C
   C42        1.0     0.943971     0.650023     0.896394    Uiso  ? C
   C42        1.0     0.943971     0.900023     0.039251    Uiso  ? C
   C42        1.0     0.943971     0.900023     0.182109    Uiso  ? C
   C42        1.0     0.943971     0.900023     0.324966    Uiso  ? C
   C42        1.0     0.943971     0.900023     0.467823    Uiso  ? C
   C42        1.0     0.943971     0.900023     0.610680    Uiso  ? C
   C42        1.0     0.943971     0.900023     0.753537    Uiso  ? C
   C42        1.0     0.943971     0.900023     0.896394    Uiso  ? C
   C43        1.0     0.110149     0.027358     0.029562    Uiso  ? C
   C43        1.0     0.110149     0.027358     0.172419    Uiso  ? C
   C43        1.0     0.110149     0.027358     0.315276    Uiso  ? C
   C43        1.0     0.110149     0.027358     0.458133    Uiso  ? C
   C43        1.0     0.110149     0.027358     0.600990    Uiso  ? C
   C43        1.0     0.110149     0.027358     0.743847    Uiso  ? C
   C43        1.0     0.110149     0.027358     0.886704    Uiso  ? C
   C43        1.0     0.110149     0.277358     0.029562    Uiso  ? C
   C43        1.0     0.110149     0.277358     0.172419    Uiso  ? C
   C43        1.0     0.110149     0.277358     0.315276    Uiso  ? C
   C43        1.0     0.110149     0.277358     0.458133    Uiso  ? C
   C43        1.0     0.110149     0.277358     0.600990    Uiso  ? C
   C43        1.0     0.110149     0.277358     0.743847    Uiso  ? C
   C43        1.0     0.110149     0.277358     0.886704    Uiso  ? C
   C43        1.0     0.110149     0.527358     0.029562    Uiso  ? C
   C43        1.0     0.110149     0.527358     0.172419    Uiso  ? C
   C43        1.0     0.110149     0.527358     0.315276    Uiso  ? C
   C43        1.0     0.110149     0.527358     0.458133    Uiso  ? C
   C43        1.0     0.110149     0.527358     0.600990    Uiso  ? C
   C43        1.0     0.110149     0.527358     0.743847    Uiso  ? C
   C43        1.0     0.110149     0.527358     0.886704    Uiso  ? C
   C43        1.0     0.110149     0.777358     0.029562    Uiso  ? C
   C43        1.0     0.110149     0.777358     0.172419    Uiso  ? C
   C43        1.0     0.110149     0.777358     0.315276    Uiso  ? C
   C43        1.0     0.110149     0.777358     0.458133    Uiso  ? C
   C43        1.0     0.110149     0.777358     0.600990    Uiso  ? C
   C43        1.0     0.110149     0.777358     0.743847    Uiso  ? C
   C43        1.0     0.110149     0.777358     0.886704    Uiso  ? C
   C43        1.0     0.443482     0.027358     0.029562    Uiso  ? C
   C43        1.0     0.443482     0.027358     0.172419    Uiso  ? C
   C43        1.0     0.443482     0.027358     0.315276    Uiso  ? C
   C43        1.0     0.443482     0.027358     0.458133    Uiso  ? C
   C43        1.0     0.443482     0.027358     0.600990    Uiso  ? C
   C43        1.0     0.443482     0.027358     0.743847    Uiso  ? C
   C43        1.0     0.443482     0.027358     0.886704    Uiso  ? C
   C43        1.0     0.443482     0.277358     0.029562    Uiso  ? C
   C43        1.0     0.443482     0.277358     0.172419    Uiso  ? C
   C43        1.0     0.443482     0.277358     0.315276    Uiso  ? C
   C43        1.0     0.443482     0.277358     0.458133    Uiso  ? C
   C43        1.0     0.443482     0.277358     0.600990    Uiso  ? C
   C43        1.0     0.443482     0.277358     0.743847    Uiso  ? C
   C43        1.0     0.443482     0.277358     0.886704    Uiso  ? C
   C43        1.0     0.443482     0.527358     0.029562    Uiso  ? C
   C43        1.0     0.443482     0.527358     0.172419    Uiso  ? C
   C43        1.0     0.443482     0.527358     0.315276    Uiso  ? C
   C43        1.0     0.443482     0.527358     0.458133    Uiso  ? C
   C43        1.0     0.443482     0.527358     0.600990    Uiso  ? C
   C43        1.0     0.443482     0.527358     0.743847    Uiso  ? C
   C43        1.0     0.443482     0.527358     0.886704    Uiso  ? C
   C43        1.0     0.443482     0.777358     0.029562    Uiso  ? C
   C43        1.0     0.443482     0.777358     0.172419    Uiso  ? C
   C43        1.0     0.443482     0.777358     0.315276    Uiso  ? C
   C43        1.0     0.443482     0.777358     0.458133    Uiso  ? C
   C43        1.0     0.443482     0.777358     0.600990    Uiso  ? C
   C43        1.0     0.443482     0.777358     0.743847    Uiso  ? C
   C43        1.0     0.443482     0.777358     0.886704    Uiso  ? C
   C43        1.0     0.776815     0.027358     0.029562    Uiso  ? C
   C43        1.0     0.776815     0.027358     0.172419    Uiso  ? C
   C43        1.0     0.776815     0.027358     0.315276    Uiso  ? C
   C43        1.0     0.776815     0.027358     0.458133    Uiso  ? C
   C43        1.0     0.776815     0.027358     0.600990    Uiso  ? C
   C43        1.0     0.776815     0.027358     0.743847    Uiso  ? C
   C43        1.0     0.776815     0.027358     0.886704    Uiso  ? C
   C43        1.0     0.776815     0.277358     0.029562    Uiso  ? C
   C43        1.0     0.776815     0.277358     0.172419    Uiso  ? C
   C43        1.0     0.776815     0.277358     0.315276    Uiso  ? C
   C43        1.0     0.776815     0.277358     0.458133    Uiso  ? C
   C43        1.0     0.776815     0.277358     0.600990    Uiso  ? C
   C43        1.0     0.776815     0.277358     0.743847    Uiso  ? C
   C43        1.0     0.776815     0.277358     0.886704    Uiso  ? C
   C43        1.0     0.776815     0.527358     0.029562    Uiso  ? C
   C43        1.0     0.776815     0.527358     0.172419    Uiso  ? C
   C43        1.0     0.776815     0.527358     0.315276    Uiso  ? C
   C43        1.0     0.776815     0.527358     0.458133    Uiso  ? C
   C43        1.0     0.776815     0.527358     0.600990    Uiso  ? C
   C43        1.0     0.776815     0.527358     0.743847    Uiso  ? C
   C43        1.0     0.776815     0.527358     0.886704    Uiso  ? C
   C43        1.0     0.776815     0.777358     0.029562    Uiso  ? C
   C43        1.0     0.776815     0.777358     0.172419    Uiso  ? C
   C43        1.0     0.776815     0.777358     0.315276    Uiso  ? C
   C43        1.0     0.776815     0.777358     0.458133    Uiso  ? C
   C43        1.0     0.776815     0.777358     0.600990    Uiso  ? C
   C43        1.0     0.776815     0.777358     0.743847    Uiso  ? C
   C43        1.0     0.776815     0.777358     0.886704    Uiso  ? C
   C44        1.0     0.110576     0.101001     0.029149    Uiso  ? C
   C44        1.0     0.110576     0.101001     0.172007    Uiso  ? C
   C44        1.0     0.110576     0.101001     0.314864    Uiso  ? C
   C44        1.0     0.110576     0.101001     0.457721    Uiso  ? C
   C44        1.0     0.110576     0.101001     0.600578    Uiso  ? C
   C44        1.0     0.110576     0.101001     0.743435    Uiso  ? C
   C44        1.0     0.110576     0.101001     0.886292    Uiso  ? C
   C44        1.0     0.110576     0.351001     0.029149    Uiso  ? C
   C44        1.0     0.110576     0.351001     0.172007    Uiso  ? C
   C44        1.0     0.110576     0.351001     0.314864    Uiso  ? C
   C44        1.0     0.110576     0.351001     0.457721    Uiso  ? C
   C44        1.0     0.110576     0.351001     0.600578    Uiso  ? C
   C44        1.0     0.110576     0.351001     0.743435    Uiso  ? C
   C44        1.0     0.110576     0.351001     0.886292    Uiso  ? C
   C44        1.0     0.110576     0.601001     0.029149    Uiso  ? C
   C44        1.0     0.110576     0.601001     0.172007    Uiso  ? C
   C44        1.0     0.110576     0.601001     0.314864    Uiso  ? C
   C44        1.0     0.110576     0.601001     0.457721    Uiso  ? C
   C44        1.0     0.110576     0.601001     0.600578    Uiso  ? C
   C44        1.0     0.110576     0.601001     0.743435    Uiso  ? C
   C44        1.0     0.110576     0.601001     0.886292    Uiso  ? C
   C44        1.0     0.110576     0.851001     0.029149    Uiso  ? C
   C44        1.0     0.110576     0.851001     0.172007    Uiso  ? C
   C44        1.0     0.110576     0.851001     0.314864    Uiso  ? C
   C44        1.0     0.110576     0.851001     0.457721    Uiso  ? C
   C44        1.0     0.110576     0.851001     0.600578    Uiso  ? C
   C44        1.0     0.110576     0.851001     0.743435    Uiso  ? C
   C44        1.0     0.110576     0.851001     0.886292    Uiso  ? C
   C44        1.0     0.443909     0.101001     0.029149    Uiso  ? C
   C44        1.0     0.443909     0.101001     0.172007    Uiso  ? C
   C44        1.0     0.443909     0.101001     0.314864    Uiso  ? C
   C44        1.0     0.443909     0.101001     0.457721    Uiso  ? C
   C44        1.0     0.443909     0.101001     0.600578    Uiso  ? C
   C44        1.0     0.443909     0.101001     0.743435    Uiso  ? C
   C44        1.0     0.443909     0.101001     0.886292    Uiso  ? C
   C44        1.0     0.443909     0.351001     0.029149    Uiso  ? C
   C44        1.0     0.443909     0.351001     0.172007    Uiso  ? C
   C44        1.0     0.443909     0.351001     0.314864    Uiso  ? C
   C44        1.0     0.443909     0.351001     0.457721    Uiso  ? C
   C44        1.0     0.443909     0.351001     0.600578    Uiso  ? C
   C44        1.0     0.443909     0.351001     0.743435    Uiso  ? C
   C44        1.0     0.443909     0.351001     0.886292    Uiso  ? C
   C44        1.0     0.443909     0.601001     0.029149    Uiso  ? C
   C44        1.0     0.443909     0.601001     0.172007    Uiso  ? C
   C44        1.0     0.443909     0.601001     0.314864    Uiso  ? C
   C44        1.0     0.443909     0.601001     0.457721    Uiso  ? C
   C44        1.0     0.443909     0.601001     0.600578    Uiso  ? C
   C44        1.0     0.443909     0.601001     0.743435    Uiso  ? C
   C44        1.0     0.443909     0.601001     0.886292    Uiso  ? C
   C44        1.0     0.443909     0.851001     0.029149    Uiso  ? C
   C44        1.0     0.443909     0.851001     0.172007    Uiso  ? C
   C44        1.0     0.443909     0.851001     0.314864    Uiso  ? C
   C44        1.0     0.443909     0.851001     0.457721    Uiso  ? C
   C44        1.0     0.443909     0.851001     0.600578    Uiso  ? C
   C44        1.0     0.443909     0.851001     0.743435    Uiso  ? C
   C44        1.0     0.443909     0.851001     0.886292    Uiso  ? C
   C44        1.0     0.777242     0.101001     0.029149    Uiso  ? C
   C44        1.0     0.777242     0.101001     0.172007    Uiso  ? C
   C44        1.0     0.777242     0.101001     0.314864    Uiso  ? C
   C44        1.0     0.777242     0.101001     0.457721    Uiso  ? C
   C44        1.0     0.777242     0.101001     0.600578    Uiso  ? C
   C44        1.0     0.777242     0.101001     0.743435    Uiso  ? C
   C44        1.0     0.777242     0.101001     0.886292    Uiso  ? C
   C44        1.0     0.777242     0.351001     0.029149    Uiso  ? C
   C44        1.0     0.777242     0.351001     0.172007    Uiso  ? C
   C44        1.0     0.777242     0.351001     0.314864    Uiso  ? C
   C44        1.0     0.777242     0.351001     0.457721    Uiso  ? C
   C44        1.0     0.777242     0.351001     0.600578    Uiso  ? C
   C44        1.0     0.777242     0.351001     0.743435    Uiso  ? C
   C44        1.0     0.777242     0.351001     0.886292    Uiso  ? C
   C44        1.0     0.777242     0.601001     0.029149    Uiso  ? C
   C44        1.0     0.777242     0.601001     0.172007    Uiso  ? C
   C44        1.0     0.777242     0.601001     0.314864    Uiso  ? C
   C44        1.0     0.777242     0.601001     0.457721    Uiso  ? C
   C44        1.0     0.777242     0.601001     0.600578    Uiso  ? C
   C44        1.0     0.777242     0.601001     0.743435    Uiso  ? C
   C44        1.0     0.777242     0.601001     0.886292    Uiso  ? C
   C44        1.0     0.777242     0.851001     0.029149    Uiso  ? C
   C44        1.0     0.777242     0.851001     0.172007    Uiso  ? C
   C44        1.0     0.777242     0.851001     0.314864    Uiso  ? C
   C44        1.0     0.777242     0.851001     0.457721    Uiso  ? C
   C44        1.0     0.777242     0.851001     0.600578    Uiso  ? C
   C44        1.0     0.777242     0.851001     0.743435    Uiso  ? C
   C44        1.0     0.777242     0.851001     0.886292    Uiso  ? C
   C45        1.0     0.319632     0.024048     0.026250    Uiso  ? C
   C45        1.0     0.319632     0.024048     0.169107    Uiso  ? C
   C45        1.0     0.319632     0.024048     0.311964    Uiso  ? C
   C45        1.0     0.319632     0.024048     0.454821    Uiso  ? C
   C45        1.0     0.319632     0.024048     0.597678    Uiso  ? C
   C45        1.0     0.319632     0.024048     0.740535    Uiso  ? C
   C45        1.0     0.319632     0.024048     0.883392    Uiso  ? C
   C45        1.0     0.319632     0.274048     0.026250    Uiso  ? C
   C45        1.0     0.319632     0.274048     0.169107    Uiso  ? C
   C45        1.0     0.319632     0.274048     0.311964    Uiso  ? C
   C45        1.0     0.319632     0.274048     0.454821    Uiso  ? C
   C45        1.0     0.319632     0.274048     0.597678    Uiso  ? C
   C45        1.0     0.319632     0.274048     0.740535    Uiso  ? C
   C45        1.0     0.319632     0.274048     0.883392    Uiso  ? C
   C45        1.0     0.319632     0.524048     0.026250    Uiso  ? C
   C45        1.0     0.319632     0.524048     0.169107    Uiso  ? C
   C45        1.0     0.319632     0.524048     0.311964    Uiso  ? C
   C45        1.0     0.319632     0.524048     0.454821    Uiso  ? C
   C45        1.0     0.319632     0.524048     0.597678    Uiso  ? C
   C45        1.0     0.319632     0.524048     0.740535    Uiso  ? C
   C45        1.0     0.319632     0.524048     0.883392    Uiso  ? C
   C45        1.0     0.319632     0.774048     0.026250    Uiso  ? C
   C45        1.0     0.319632     0.774048     0.169107    Uiso  ? C
   C45        1.0     0.319632     0.774048     0.311964    Uiso  ? C
   C45        1.0     0.319632     0.774048     0.454821    Uiso  ? C
   C45        1.0     0.319632     0.774048     0.597678    Uiso  ? C
   C45        1.0     0.319632     0.774048     0.740535    Uiso  ? C
   C45        1.0     0.319632     0.774048     0.883392    Uiso  ? C
   C45        1.0     0.652965     0.024048     0.026250    Uiso  ? C
   C45        1.0     0.652965     0.024048     0.169107    Uiso  ? C
   C45        1.0     0.652965     0.024048     0.311964    Uiso  ? C
   C45        1.0     0.652965     0.024048     0.454821    Uiso  ? C
   C45        1.0     0.652965     0.024048     0.597678    Uiso  ? C
   C45        1.0     0.652965     0.024048     0.740535    Uiso  ? C
   C45        1.0     0.652965     0.024048     0.883392    Uiso  ? C
   C45        1.0     0.652965     0.274048     0.026250    Uiso  ? C
   C45        1.0     0.652965     0.274048     0.169107    Uiso  ? C
   C45        1.0     0.652965     0.274048     0.311964    Uiso  ? C
   C45        1.0     0.652965     0.274048     0.454821    Uiso  ? C
   C45        1.0     0.652965     0.274048     0.597678    Uiso  ? C
   C45        1.0     0.652965     0.274048     0.740535    Uiso  ? C
   C45        1.0     0.652965     0.274048     0.883392    Uiso  ? C
   C45        1.0     0.652965     0.524048     0.026250    Uiso  ? C
   C45        1.0     0.652965     0.524048     0.169107    Uiso  ? C
   C45        1.0     0.652965     0.524048     0.311964    Uiso  ? C
   C45        1.0     0.652965     0.524048     0.454821    Uiso  ? C
   C45        1.0     0.652965     0.524048     0.597678    Uiso  ? C
   C45        1.0     0.652965     0.524048     0.740535    Uiso  ? C
   C45        1.0     0.652965     0.524048     0.883392    Uiso  ? C
   C45        1.0     0.652965     0.774048     0.026250    Uiso  ? C
   C45        1.0     0.652965     0.774048     0.169107    Uiso  ? C
   C45        1.0     0.652965     0.774048     0.311964    Uiso  ? C
   C45        1.0     0.652965     0.774048     0.454821    Uiso  ? C
   C45        1.0     0.652965     0.774048     0.597678    Uiso  ? C
   C45        1.0     0.652965     0.774048     0.740535    Uiso  ? C
   C45        1.0     0.652965     0.774048     0.883392    Uiso  ? C
   C45        1.0     0.986298     0.024048     0.026250    Uiso  ? C
   C45        1.0     0.986298     0.024048     0.169107    Uiso  ? C
   C45        1.0     0.986298     0.024048     0.311964    Uiso  ? C
   C45        1.0     0.986298     0.024048     0.454821    Uiso  ? C
   C45        1.0     0.986298     0.024048     0.597678    Uiso  ? C
   C45        1.0     0.986298     0.024048     0.740535    Uiso  ? C
   C45        1.0     0.986298     0.024048     0.883392    Uiso  ? C
   C45        1.0     0.986298     0.274048     0.026250    Uiso  ? C
   C45        1.0     0.986298     0.274048     0.169107    Uiso  ? C
   C45        1.0     0.986298     0.274048     0.311964    Uiso  ? C
   C45        1.0     0.986298     0.274048     0.454821    Uiso  ? C
   C45        1.0     0.986298     0.274048     0.597678    Uiso  ? C
   C45        1.0     0.986298     0.274048     0.740535    Uiso  ? C
   C45        1.0     0.986298     0.274048     0.883392    Uiso  ? C
   C45        1.0     0.986298     0.524048     0.026250    Uiso  ? C
   C45        1.0     0.986298     0.524048     0.169107    Uiso  ? C
   C45        1.0     0.986298     0.524048     0.311964    Uiso  ? C
   C45        1.0     0.986298     0.524048     0.454821    Uiso  ? C
   C45        1.0     0.986298     0.524048     0.597678    Uiso  ? C
   C45        1.0     0.986298     0.524048     0.740535    Uiso  ? C
   C45        1.0     0.986298     0.524048     0.883392    Uiso  ? C
   C45        1.0     0.986298     0.774048     0.026250    Uiso  ? C
   C45        1.0     0.986298     0.774048     0.169107    Uiso  ? C
   C45        1.0     0.986298     0.774048     0.311964    Uiso  ? C
   C45        1.0     0.986298     0.774048     0.454821    Uiso  ? C
   C45        1.0     0.986298     0.774048     0.597678    Uiso  ? C
   C45        1.0     0.986298     0.774048     0.740535    Uiso  ? C
   C45        1.0     0.986298     0.774048     0.883392    Uiso  ? C
   C46        1.0     0.126108     0.005863     0.025715    Uiso  ? C
   C46        1.0     0.126108     0.005863     0.168572    Uiso  ? C
   C46        1.0     0.126108     0.005863     0.311429    Uiso  ? C
   C46        1.0     0.126108     0.005863     0.454286    Uiso  ? C
   C46        1.0     0.126108     0.005863     0.597143    Uiso  ? C
   C46        1.0     0.126108     0.005863     0.740001    Uiso  ? C
   C46        1.0     0.126108     0.005863     0.882858    Uiso  ? C
   C46        1.0     0.126108     0.255863     0.025715    Uiso  ? C
   C46        1.0     0.126108     0.255863     0.168572    Uiso  ? C
   C46        1.0     0.126108     0.255863     0.311429    Uiso  ? C
   C46        1.0     0.126108     0.255863     0.454286    Uiso  ? C
   C46        1.0     0.126108     0.255863     0.597143    Uiso  ? C
   C46        1.0     0.126108     0.255863     0.740001    Uiso  ? C
   C46        1.0     0.126108     0.255863     0.882858    Uiso  ? C
   C46        1.0     0.126108     0.505863     0.025715    Uiso  ? C
   C46        1.0     0.126108     0.505863     0.168572    Uiso  ? C
   C46        1.0     0.126108     0.505863     0.311429    Uiso  ? C
   C46        1.0     0.126108     0.505863     0.454286    Uiso  ? C
   C46        1.0     0.126108     0.505863     0.597143    Uiso  ? C
   C46        1.0     0.126108     0.505863     0.740001    Uiso  ? C
   C46        1.0     0.126108     0.505863     0.882858    Uiso  ? C
   C46        1.0     0.126108     0.755863     0.025715    Uiso  ? C
   C46        1.0     0.126108     0.755863     0.168572    Uiso  ? C
   C46        1.0     0.126108     0.755863     0.311429    Uiso  ? C
   C46        1.0     0.126108     0.755863     0.454286    Uiso  ? C
   C46        1.0     0.126108     0.755863     0.597143    Uiso  ? C
   C46        1.0     0.126108     0.755863     0.740001    Uiso  ? C
   C46        1.0     0.126108     0.755863     0.882858    Uiso  ? C
   C46        1.0     0.459441     0.005863     0.025715    Uiso  ? C
   C46        1.0     0.459441     0.005863     0.168572    Uiso  ? C
   C46        1.0     0.459441     0.005863     0.311429    Uiso  ? C
   C46        1.0     0.459441     0.005863     0.454286    Uiso  ? C
   C46        1.0     0.459441     0.005863     0.597143    Uiso  ? C
   C46        1.0     0.459441     0.005863     0.740001    Uiso  ? C
   C46        1.0     0.459441     0.005863     0.882858    Uiso  ? C
   C46        1.0     0.459441     0.255863     0.025715    Uiso  ? C
   C46        1.0     0.459441     0.255863     0.168572    Uiso  ? C
   C46        1.0     0.459441     0.255863     0.311429    Uiso  ? C
   C46        1.0     0.459441     0.255863     0.454286    Uiso  ? C
   C46        1.0     0.459441     0.255863     0.597143    Uiso  ? C
   C46        1.0     0.459441     0.255863     0.740001    Uiso  ? C
   C46        1.0     0.459441     0.255863     0.882858    Uiso  ? C
   C46        1.0     0.459441     0.505863     0.025715    Uiso  ? C
   C46        1.0     0.459441     0.505863     0.168572    Uiso  ? C
   C46        1.0     0.459441     0.505863     0.311429    Uiso  ? C
   C46        1.0     0.459441     0.505863     0.454286    Uiso  ? C
   C46        1.0     0.459441     0.505863     0.597143    Uiso  ? C
   C46        1.0     0.459441     0.505863     0.740001    Uiso  ? C
   C46        1.0     0.459441     0.505863     0.882858    Uiso  ? C
   C46        1.0     0.459441     0.755863     0.025715    Uiso  ? C
   C46        1.0     0.459441     0.755863     0.168572    Uiso  ? C
   C46        1.0     0.459441     0.755863     0.311429    Uiso  ? C
   C46        1.0     0.459441     0.755863     0.454286    Uiso  ? C
   C46        1.0     0.459441     0.755863     0.597143    Uiso  ? C
   C46        1.0     0.459441     0.755863     0.740001    Uiso  ? C
   C46        1.0     0.459441     0.755863     0.882858    Uiso  ? C
   C46        1.0     0.792774     0.005863     0.025715    Uiso  ? C
   C46        1.0     0.792774     0.005863     0.168572    Uiso  ? C
   C46        1.0     0.792774     0.005863     0.311429    Uiso  ? C
   C46        1.0     0.792774     0.005863     0.454286    Uiso  ? C
   C46        1.0     0.792774     0.005863     0.597143    Uiso  ? C
   C46        1.0     0.792774     0.005863     0.740001    Uiso  ? C
   C46        1.0     0.792774     0.005863     0.882858    Uiso  ? C
   C46        1.0     0.792774     0.255863     0.025715    Uiso  ? C
   C46        1.0     0.792774     0.255863     0.168572    Uiso  ? C
   C46        1.0     0.792774     0.255863     0.311429    Uiso  ? C
   C46        1.0     0.792774     0.255863     0.454286    Uiso  ? C
   C46        1.0     0.792774     0.255863     0.597143    Uiso  ? C
   C46        1.0     0.792774     0.255863     0.740001    Uiso  ? C
   C46        1.0     0.792774     0.255863     0.882858    Uiso  ? C
   C46        1.0     0.792774     0.505863     0.025715    Uiso  ? C
   C46        1.0     0.792774     0.505863     0.168572    Uiso  ? C
   C46        1.0     0.792774     0.505863     0.311429    Uiso  ? C
   C46        1.0     0.792774     0.505863     0.454286    Uiso  ? C
   C46        1.0     0.792774     0.505863     0.597143    Uiso  ? C
   C46        1.0     0.792774     0.505863     0.740001    Uiso  ? C
   C46        1.0     0.792774     0.505863     0.882858    Uiso  ? C
   C46        1.0     0.792774     0.755863     0.025715    Uiso  ? C
   C46        1.0     0.792774     0.755863     0.168572    Uiso  ? C
   C46        1.0     0.792774     0.755863     0.311429    Uiso  ? C
   C46        1.0     0.792774     0.755863     0.454286    Uiso  ? C
   C46        1.0     0.792774     0.755863     0.597143    Uiso  ? C
   C46        1.0     0.792774     0.755863     0.740001    Uiso  ? C
   C46        1.0     0.792774     0.755863     0.882858    Uiso  ? C
   C47        1.0     0.126657     0.122424     0.025334    Uiso  ? C
   C47        1.0     0.126657     0.122424     0.168191    Uiso  ? C
   C47        1.0     0.126657     0.122424     0.311049    Uiso  ? C
   C47        1.0     0.126657     0.122424     0.453906    Uiso  ? C
   C47        1.0     0.126657     0.122424     0.596763    Uiso  ? C
   C47        1.0     0.126657     0.122424     0.739620    Uiso  ? C
   C47        1.0     0.126657     0.122424     0.882477    Uiso  ? C
   C47        1.0     0.126657     0.372424     0.025334    Uiso  ? C
   C47        1.0     0.126657     0.372424     0.168191    Uiso  ? C
   C47        1.0     0.126657     0.372424     0.311049    Uiso  ? C
   C47        1.0     0.126657     0.372424     0.453906    Uiso  ? C
   C47        1.0     0.126657     0.372424     0.596763    Uiso  ? C
   C47        1.0     0.126657     0.372424     0.739620    Uiso  ? C
   C47        1.0     0.126657     0.372424     0.882477    Uiso  ? C
   C47        1.0     0.126657     0.622424     0.025334    Uiso  ? C
   C47        1.0     0.126657     0.622424     0.168191    Uiso  ? C
   C47        1.0     0.126657     0.622424     0.311049    Uiso  ? C
   C47        1.0     0.126657     0.622424     0.453906    Uiso  ? C
   C47        1.0     0.126657     0.622424     0.596763    Uiso  ? C
   C47        1.0     0.126657     0.622424     0.739620    Uiso  ? C
   C47        1.0     0.126657     0.622424     0.882477    Uiso  ? C
   C47        1.0     0.126657     0.872424     0.025334    Uiso  ? C
   C47        1.0     0.126657     0.872424     0.168191    Uiso  ? C
   C47        1.0     0.126657     0.872424     0.311049    Uiso  ? C
   C47        1.0     0.126657     0.872424     0.453906    Uiso  ? C
   C47        1.0     0.126657     0.872424     0.596763    Uiso  ? C
   C47        1.0     0.126657     0.872424     0.739620    Uiso  ? C
   C47        1.0     0.126657     0.872424     0.882477    Uiso  ? C
   C47        1.0     0.459990     0.122424     0.025334    Uiso  ? C
   C47        1.0     0.459990     0.122424     0.168191    Uiso  ? C
   C47        1.0     0.459990     0.122424     0.311049    Uiso  ? C
   C47        1.0     0.459990     0.122424     0.453906    Uiso  ? C
   C47        1.0     0.459990     0.122424     0.596763    Uiso  ? C
   C47        1.0     0.459990     0.122424     0.739620    Uiso  ? C
   C47        1.0     0.459990     0.122424     0.882477    Uiso  ? C
   C47        1.0     0.459990     0.372424     0.025334    Uiso  ? C
   C47        1.0     0.459990     0.372424     0.168191    Uiso  ? C
   C47        1.0     0.459990     0.372424     0.311049    Uiso  ? C
   C47        1.0     0.459990     0.372424     0.453906    Uiso  ? C
   C47        1.0     0.459990     0.372424     0.596763    Uiso  ? C
   C47        1.0     0.459990     0.372424     0.739620    Uiso  ? C
   C47        1.0     0.459990     0.372424     0.882477    Uiso  ? C
   C47        1.0     0.459990     0.622424     0.025334    Uiso  ? C
   C47        1.0     0.459990     0.622424     0.168191    Uiso  ? C
   C47        1.0     0.459990     0.622424     0.311049    Uiso  ? C
   C47        1.0     0.459990     0.622424     0.453906    Uiso  ? C
   C47        1.0     0.459990     0.622424     0.596763    Uiso  ? C
   C47        1.0     0.459990     0.622424     0.739620    Uiso  ? C
   C47        1.0     0.459990     0.622424     0.882477    Uiso  ? C
   C47        1.0     0.459990     0.872424     0.025334    Uiso  ? C
   C47        1.0     0.459990     0.872424     0.168191    Uiso  ? C
   C47        1.0     0.459990     0.872424     0.311049    Uiso  ? C
   C47        1.0     0.459990     0.872424     0.453906    Uiso  ? C
   C47        1.0     0.459990     0.872424     0.596763    Uiso  ? C
   C47        1.0     0.459990     0.872424     0.739620    Uiso  ? C
   C47        1.0     0.459990     0.872424     0.882477    Uiso  ? C
   C47        1.0     0.793323     0.122424     0.025334    Uiso  ? C
   C47        1.0     0.793323     0.122424     0.168191    Uiso  ? C
   C47        1.0     0.793323     0.122424     0.311049    Uiso  ? C
   C47        1.0     0.793323     0.122424     0.453906    Uiso  ? C
   C47        1.0     0.793323     0.122424     0.596763    Uiso  ? C
   C47        1.0     0.793323     0.122424     0.739620    Uiso  ? C
   C47        1.0     0.793323     0.122424     0.882477    Uiso  ? C
   C47        1.0     0.793323     0.372424     0.025334    Uiso  ? C
   C47        1.0     0.793323     0.372424     0.168191    Uiso  ? C
   C47        1.0     0.793323     0.372424     0.311049    Uiso  ? C
   C47        1.0     0.793323     0.372424     0.453906    Uiso  ? C
   C47        1.0     0.793323     0.372424     0.596763    Uiso  ? C
   C47        1.0     0.793323     0.372424     0.739620    Uiso  ? C
   C47        1.0     0.793323     0.372424     0.882477    Uiso  ? C
   C47        1.0     0.793323     0.622424     0.025334    Uiso  ? C
   C47        1.0     0.793323     0.622424     0.168191    Uiso  ? C
   C47        1.0     0.793323     0.622424     0.311049    Uiso  ? C
   C47        1.0     0.793323     0.622424     0.453906    Uiso  ? C
   C47        1.0     0.793323     0.622424     0.596763    Uiso  ? C
   C47        1.0     0.793323     0.622424     0.739620    Uiso  ? C
   C47        1.0     0.793323     0.622424     0.882477    Uiso  ? C
   C47        1.0     0.793323     0.872424     0.025334    Uiso  ? C
   C47        1.0     0.793323     0.872424     0.168191    Uiso  ? C
   C47        1.0     0.793323     0.872424     0.311049    Uiso  ? C
   C47        1.0     0.793323     0.872424     0.453906    Uiso  ? C
   C47        1.0     0.793323     0.872424     0.596763    Uiso  ? C
   C47        1.0     0.793323     0.872424     0.739620    Uiso  ? C
   C47        1.0     0.793323     0.872424     0.882477    Uiso  ? C
   C48        1.0     0.317514     0.096358     0.024850    Uiso  ? C
   C48        1.0     0.317514     0.096358     0.167708    Uiso  ? C
   C48        1.0     0.317514     0.096358     0.310565    Uiso  ? C
   C48        1.0     0.317514     0.096358     0.453422    Uiso  ? C
   C48        1.0     0.317514     0.096358     0.596279    Uiso  ? C
   C48        1.0     0.317514     0.096358     0.739136    Uiso  ? C
   C48        1.0     0.317514     0.096358     0.881993    Uiso  ? C
   C48        1.0     0.317514     0.346358     0.024850    Uiso  ? C
   C48        1.0     0.317514     0.346358     0.167708    Uiso  ? C
   C48        1.0     0.317514     0.346358     0.310565    Uiso  ? C
   C48        1.0     0.317514     0.346358     0.453422    Uiso  ? C
   C48        1.0     0.317514     0.346358     0.596279    Uiso  ? C
   C48        1.0     0.317514     0.346358     0.739136    Uiso  ? C
   C48        1.0     0.317514     0.346358     0.881993    Uiso  ? C
   C48        1.0     0.317514     0.596358     0.024850    Uiso  ? C
   C48        1.0     0.317514     0.596358     0.167708    Uiso  ? C
   C48        1.0     0.317514     0.596358     0.310565    Uiso  ? C
   C48        1.0     0.317514     0.596358     0.453422    Uiso  ? C
   C48        1.0     0.317514     0.596358     0.596279    Uiso  ? C
   C48        1.0     0.317514     0.596358     0.739136    Uiso  ? C
   C48        1.0     0.317514     0.596358     0.881993    Uiso  ? C
   C48        1.0     0.317514     0.846358     0.024850    Uiso  ? C
   C48        1.0     0.317514     0.846358     0.167708    Uiso  ? C
   C48        1.0     0.317514     0.846358     0.310565    Uiso  ? C
   C48        1.0     0.317514     0.846358     0.453422    Uiso  ? C
   C48        1.0     0.317514     0.846358     0.596279    Uiso  ? C
   C48        1.0     0.317514     0.846358     0.739136    Uiso  ? C
   C48        1.0     0.317514     0.846358     0.881993    Uiso  ? C
   C48        1.0     0.650847     0.096358     0.024850    Uiso  ? C
   C48        1.0     0.650847     0.096358     0.167708    Uiso  ? C
   C48        1.0     0.650847     0.096358     0.310565    Uiso  ? C
   C48        1.0     0.650847     0.096358     0.453422    Uiso  ? C
   C48        1.0     0.650847     0.096358     0.596279    Uiso  ? C
   C48        1.0     0.650847     0.096358     0.739136    Uiso  ? C
   C48        1.0     0.650847     0.096358     0.881993    Uiso  ? C
   C48        1.0     0.650847     0.346358     0.024850    Uiso  ? C
   C48        1.0     0.650847     0.346358     0.167708    Uiso  ? C
   C48        1.0     0.650847     0.346358     0.310565    Uiso  ? C
   C48        1.0     0.650847     0.346358     0.453422    Uiso  ? C
   C48        1.0     0.650847     0.346358     0.596279    Uiso  ? C
   C48        1.0     0.650847     0.346358     0.739136    Uiso  ? C
   C48        1.0     0.650847     0.346358     0.881993    Uiso  ? C
   C48        1.0     0.650847     0.596358     0.024850    Uiso  ? C
   C48        1.0     0.650847     0.596358     0.167708    Uiso  ? C
   C48        1.0     0.650847     0.596358     0.310565    Uiso  ? C
   C48        1.0     0.650847     0.596358     0.453422    Uiso  ? C
   C48        1.0     0.650847     0.596358     0.596279    Uiso  ? C
   C48        1.0     0.650847     0.596358     0.739136    Uiso  ? C
   C48        1.0     0.650847     0.596358     0.881993    Uiso  ? C
   C48        1.0     0.650847     0.846358     0.024850    Uiso  ? C
   C48        1.0     0.650847     0.846358     0.167708    Uiso  ? C
   C48        1.0     0.650847     0.846358     0.310565    Uiso  ? C
   C48        1.0     0.650847     0.846358     0.453422    Uiso  ? C
   C48        1.0     0.650847     0.846358     0.596279    Uiso  ? C
   C48        1.0     0.650847     0.846358     0.739136    Uiso  ? C
   C48        1.0     0.650847     0.846358     0.881993    Uiso  ? C
   C48        1.0     0.984180     0.096358     0.024850    Uiso  ? C
   C48        1.0     0.984180     0.096358     0.167708    Uiso  ? C
   C48        1.0     0.984180     0.096358     0.310565    Uiso  ? C
   C48        1.0     0.984180     0.096358     0.453422    Uiso  ? C
   C48        1.0     0.984180     0.096358     0.596279    Uiso  ? C
   C48        1.0     0.984180     0.096358     0.739136    Uiso  ? C
   C48        1.0     0.984180     0.096358     0.881993    Uiso  ? C
   C48        1.0     0.984180     0.346358     0.024850    Uiso  ? C
   C48        1.0     0.984180     0.346358     0.167708    Uiso  ? C
   C48        1.0     0.984180     0.346358     0.310565    Uiso  ? C
   C48        1.0     0.984180     0.346358     0.453422    Uiso  ? C
   C48        1.0     0.984180     0.346358     0.596279    Uiso  ? C
   C48        1.0     0.984180     0.346358     0.739136    Uiso  ? C
   C48        1.0     0.984180     0.346358     0.881993    Uiso  ? C
   C48        1.0     0.984180     0.596358     0.024850    Uiso  ? C
   C48        1.0     0.984180     0.596358     0.167708    Uiso  ? C
   C48        1.0     0.984180     0.596358     0.310565    Uiso  ? C
   C48        1.0     0.984180     0.596358     0.453422    Uiso  ? C
   C48        1.0     0.984180     0.596358     0.596279    Uiso  ? C
   C48        1.0     0.984180     0.596358     0.739136    Uiso  ? C
   C48        1.0     0.984180     0.596358     0.881993    Uiso  ? C
   C48        1.0     0.984180     0.846358     0.024850    Uiso  ? C
   C48        1.0     0.984180     0.846358     0.167708    Uiso  ? C
   C48        1.0     0.984180     0.846358     0.310565    Uiso  ? C
   C48        1.0     0.984180     0.846358     0.453422    Uiso  ? C
   C48        1.0     0.984180     0.846358     0.596279    Uiso  ? C
   C48        1.0     0.984180     0.846358     0.739136    Uiso  ? C
   C48        1.0     0.984180     0.846358     0.881993    Uiso  ? C
   C49        1.0     0.304957     0.003922     0.022777    Uiso  ? C
   C49        1.0     0.304957     0.003922     0.165634    Uiso  ? C
   C49        1.0     0.304957     0.003922     0.308491    Uiso  ? C
   C49        1.0     0.304957     0.003922     0.451349    Uiso  ? C
   C49        1.0     0.304957     0.003922     0.594206    Uiso  ? C
   C49        1.0     0.304957     0.003922     0.737063    Uiso  ? C
   C49        1.0     0.304957     0.003922     0.879920    Uiso  ? C
   C49        1.0     0.304957     0.253922     0.022777    Uiso  ? C
   C49        1.0     0.304957     0.253922     0.165634    Uiso  ? C
   C49        1.0     0.304957     0.253922     0.308491    Uiso  ? C
   C49        1.0     0.304957     0.253922     0.451349    Uiso  ? C
   C49        1.0     0.304957     0.253922     0.594206    Uiso  ? C
   C49        1.0     0.304957     0.253922     0.737063    Uiso  ? C
   C49        1.0     0.304957     0.253922     0.879920    Uiso  ? C
   C49        1.0     0.304957     0.503922     0.022777    Uiso  ? C
   C49        1.0     0.304957     0.503922     0.165634    Uiso  ? C
   C49        1.0     0.304957     0.503922     0.308491    Uiso  ? C
   C49        1.0     0.304957     0.503922     0.451349    Uiso  ? C
   C49        1.0     0.304957     0.503922     0.594206    Uiso  ? C
   C49        1.0     0.304957     0.503922     0.737063    Uiso  ? C
   C49        1.0     0.304957     0.503922     0.879920    Uiso  ? C
   C49        1.0     0.304957     0.753922     0.022777    Uiso  ? C
   C49        1.0     0.304957     0.753922     0.165634    Uiso  ? C
   C49        1.0     0.304957     0.753922     0.308491    Uiso  ? C
   C49        1.0     0.304957     0.753922     0.451349    Uiso  ? C
   C49        1.0     0.304957     0.753922     0.594206    Uiso  ? C
   C49        1.0     0.304957     0.753922     0.737063    Uiso  ? C
   C49        1.0     0.304957     0.753922     0.879920    Uiso  ? C
   C49        1.0     0.638290     0.003922     0.022777    Uiso  ? C
   C49        1.0     0.638290     0.003922     0.165634    Uiso  ? C
   C49        1.0     0.638290     0.003922     0.308491    Uiso  ? C
   C49        1.0     0.638290     0.003922     0.451349    Uiso  ? C
   C49        1.0     0.638290     0.003922     0.594206    Uiso  ? C
   C49        1.0     0.638290     0.003922     0.737063    Uiso  ? C
   C49        1.0     0.638290     0.003922     0.879920    Uiso  ? C
   C49        1.0     0.638290     0.253922     0.022777    Uiso  ? C
   C49        1.0     0.638290     0.253922     0.165634    Uiso  ? C
   C49        1.0     0.638290     0.253922     0.308491    Uiso  ? C
   C49        1.0     0.638290     0.253922     0.451349    Uiso  ? C
   C49        1.0     0.638290     0.253922     0.594206    Uiso  ? C
   C49        1.0     0.638290     0.253922     0.737063    Uiso  ? C
   C49        1.0     0.638290     0.253922     0.879920    Uiso  ? C
   C49        1.0     0.638290     0.503922     0.022777    Uiso  ? C
   C49        1.0     0.638290     0.503922     0.165634    Uiso  ? C
   C49        1.0     0.638290     0.503922     0.308491    Uiso  ? C
   C49        1.0     0.638290     0.503922     0.451349    Uiso  ? C
   C49        1.0     0.638290     0.503922     0.594206    Uiso  ? C
   C49        1.0     0.638290     0.503922     0.737063    Uiso  ? C
   C49        1.0     0.638290     0.503922     0.879920    Uiso  ? C
   C49        1.0     0.638290     0.753922     0.022777    Uiso  ? C
   C49        1.0     0.638290     0.753922     0.165634    Uiso  ? C
   C49        1.0     0.638290     0.753922     0.308491    Uiso  ? C
   C49        1.0     0.638290     0.753922     0.451349    Uiso  ? C
   C49        1.0     0.638290     0.753922     0.594206    Uiso  ? C
   C49        1.0     0.638290     0.753922     0.737063    Uiso  ? C
   C49        1.0     0.638290     0.753922     0.879920    Uiso  ? C
   C49        1.0     0.971623     0.003922     0.022777    Uiso  ? C
   C49        1.0     0.971623     0.003922     0.165634    Uiso  ? C
   C49        1.0     0.971623     0.003922     0.308491    Uiso  ? C
   C49        1.0     0.971623     0.003922     0.451349    Uiso  ? C
   C49        1.0     0.971623     0.003922     0.594206    Uiso  ? C
   C49        1.0     0.971623     0.003922     0.737063    Uiso  ? C
   C49        1.0     0.971623     0.003922     0.879920    Uiso  ? C
   C49        1.0     0.971623     0.253922     0.022777    Uiso  ? C
   C49        1.0     0.971623     0.253922     0.165634    Uiso  ? C
   C49        1.0     0.971623     0.253922     0.308491    Uiso  ? C
   C49        1.0     0.971623     0.253922     0.451349    Uiso  ? C
   C49        1.0     0.971623     0.253922     0.594206    Uiso  ? C
   C49        1.0     0.971623     0.253922     0.737063    Uiso  ? C
   C49        1.0     0.971623     0.253922     0.879920    Uiso  ? C
   C49        1.0     0.971623     0.503922     0.022777    Uiso  ? C
   C49        1.0     0.971623     0.503922     0.165634    Uiso  ? C
   C49        1.0     0.971623     0.503922     0.308491    Uiso  ? C
   C49        1.0     0.971623     0.503922     0.451349    Uiso  ? C
   C49        1.0     0.971623     0.503922     0.594206    Uiso  ? C
   C49        1.0     0.971623     0.503922     0.737063    Uiso  ? C
   C49        1.0     0.971623     0.503922     0.879920    Uiso  ? C
   C49        1.0     0.971623     0.753922     0.022777    Uiso  ? C
   C49        1.0     0.971623     0.753922     0.165634    Uiso  ? C
   C49        1.0     0.971623     0.753922     0.308491    Uiso  ? C
   C49        1.0     0.971623     0.753922     0.451349    Uiso  ? C
   C49        1.0     0.971623     0.753922     0.594206    Uiso  ? C
   C49        1.0     0.971623     0.753922     0.737063    Uiso  ? C
   C49        1.0     0.971623     0.753922     0.879920    Uiso  ? C
   C50        1.0     0.303008     0.116585     0.021105    Uiso  ? C
   C50        1.0     0.303008     0.116585     0.163962    Uiso  ? C
   C50        1.0     0.303008     0.116585     0.306820    Uiso  ? C
   C50        1.0     0.303008     0.116585     0.449677    Uiso  ? C
   C50        1.0     0.303008     0.116585     0.592534    Uiso  ? C
   C50        1.0     0.303008     0.116585     0.735391    Uiso  ? C
   C50        1.0     0.303008     0.116585     0.878248    Uiso  ? C
   C50        1.0     0.303008     0.366585     0.021105    Uiso  ? C
   C50        1.0     0.303008     0.366585     0.163962    Uiso  ? C
   C50        1.0     0.303008     0.366585     0.306820    Uiso  ? C
   C50        1.0     0.303008     0.366585     0.449677    Uiso  ? C
   C50        1.0     0.303008     0.366585     0.592534    Uiso  ? C
   C50        1.0     0.303008     0.366585     0.735391    Uiso  ? C
   C50        1.0     0.303008     0.366585     0.878248    Uiso  ? C
   C50        1.0     0.303008     0.616585     0.021105    Uiso  ? C
   C50        1.0     0.303008     0.616585     0.163962    Uiso  ? C
   C50        1.0     0.303008     0.616585     0.306820    Uiso  ? C
   C50        1.0     0.303008     0.616585     0.449677    Uiso  ? C
   C50        1.0     0.303008     0.616585     0.592534    Uiso  ? C
   C50        1.0     0.303008     0.616585     0.735391    Uiso  ? C
   C50        1.0     0.303008     0.616585     0.878248    Uiso  ? C
   C50        1.0     0.303008     0.866585     0.021105    Uiso  ? C
   C50        1.0     0.303008     0.866585     0.163962    Uiso  ? C
   C50        1.0     0.303008     0.866585     0.306820    Uiso  ? C
   C50        1.0     0.303008     0.866585     0.449677    Uiso  ? C
   C50        1.0     0.303008     0.866585     0.592534    Uiso  ? C
   C50        1.0     0.303008     0.866585     0.735391    Uiso  ? C
   C50        1.0     0.303008     0.866585     0.878248    Uiso  ? C
   C50        1.0     0.636341     0.116585     0.021105    Uiso  ? C
   C50        1.0     0.636341     0.116585     0.163962    Uiso  ? C
   C50        1.0     0.636341     0.116585     0.306820    Uiso  ? C
   C50        1.0     0.636341     0.116585     0.449677    Uiso  ? C
   C50        1.0     0.636341     0.116585     0.592534    Uiso  ? C
   C50        1.0     0.636341     0.116585     0.735391    Uiso  ? C
   C50        1.0     0.636341     0.116585     0.878248    Uiso  ? C
   C50        1.0     0.636341     0.366585     0.021105    Uiso  ? C
   C50        1.0     0.636341     0.366585     0.163962    Uiso  ? C
   C50        1.0     0.636341     0.366585     0.306820    Uiso  ? C
   C50        1.0     0.636341     0.366585     0.449677    Uiso  ? C
   C50        1.0     0.636341     0.366585     0.592534    Uiso  ? C
   C50        1.0     0.636341     0.366585     0.735391    Uiso  ? C
   C50        1.0     0.636341     0.366585     0.878248    Uiso  ? C
   C50        1.0     0.636341     0.616585     0.021105    Uiso  ? C
   C50        1.0     0.636341     0.616585     0.163962    Uiso  ? C
   C50        1.0     0.636341     0.616585     0.306820    Uiso  ? C
   C50        1.0     0.636341     0.616585     0.449677    Uiso  ? C
   C50        1.0     0.636341     0.616585     0.592534    Uiso  ? C
   C50        1.0     0.636341     0.616585     0.735391    Uiso  ? C
   C50        1.0     0.636341     0.616585     0.878248    Uiso  ? C
   C50        1.0     0.636341     0.866585     0.021105    Uiso  ? C
   C50        1.0     0.636341     0.866585     0.163962    Uiso  ? C
   C50        1.0     0.636341     0.866585     0.306820    Uiso  ? C
   C50        1.0     0.636341     0.866585     0.449677    Uiso  ? C
   C50        1.0     0.636341     0.866585     0.592534    Uiso  ? C
   C50        1.0     0.636341     0.866585     0.735391    Uiso  ? C
   C50        1.0     0.636341     0.866585     0.878248    Uiso  ? C
   C50        1.0     0.969674     0.116585     0.021105    Uiso  ? C
   C50        1.0     0.969674     0.116585     0.163962    Uiso  ? C
   C50        1.0     0.969674     0.116585     0.306820    Uiso  ? C
   C50        1.0     0.969674     0.116585     0.449677    Uiso  ? C
   C50        1.0     0.969674     0.116585     0.592534    Uiso  ? C
   C50        1.0     0.969674     0.116585     0.735391    Uiso  ? C
   C50        1.0     0.969674     0.116585     0.878248    Uiso  ? C
   C50        1.0     0.969674     0.366585     0.021105    Uiso  ? C
   C50        1.0     0.969674     0.366585     0.163962    Uiso  ? C
   C50        1.0     0.969674     0.366585     0.306820    Uiso  ? C
   C50        1.0     0.969674     0.366585     0.449677    Uiso  ? C
   C50        1.0     0.969674     0.366585     0.592534    Uiso  ? C
   C50        1.0     0.969674     0.366585     0.735391    Uiso  ? C
   C50        1.0     0.969674     0.366585     0.878248    Uiso  ? C
   C50        1.0     0.969674     0.616585     0.021105    Uiso  ? C
   C50        1.0     0.969674     0.616585     0.163962    Uiso  ? C
   C50        1.0     0.969674     0.616585     0.306820    Uiso  ? C
   C50        1.0     0.969674     0.616585     0.449677    Uiso  ? C
   C50        1.0     0.969674     0.616585     0.592534    Uiso  ? C
   C50        1.0     0.969674     0.616585     0.735391    Uiso  ? C
   C50        1.0     0.969674     0.616585     0.878248    Uiso  ? C
   C50        1.0     0.969674     0.866585     0.021105    Uiso  ? C
   C50        1.0     0.969674     0.866585     0.163962    Uiso  ? C
   C50        1.0     0.969674     0.866585     0.306820    Uiso  ? C
   C50        1.0     0.969674     0.866585     0.449677    Uiso  ? C
   C50        1.0     0.969674     0.866585     0.592534    Uiso  ? C
   C50        1.0     0.969674     0.866585     0.735391    Uiso  ? C
   C50        1.0     0.969674     0.866585     0.878248    Uiso  ? C
   C51        1.0     0.155105     0.216005     0.017481    Uiso  ? C
   C51        1.0     0.155105     0.216005     0.160338    Uiso  ? C
   C51        1.0     0.155105     0.216005     0.303195    Uiso  ? C
   C51        1.0     0.155105     0.216005     0.446052    Uiso  ? C
   C51        1.0     0.155105     0.216005     0.588909    Uiso  ? C
   C51        1.0     0.155105     0.216005     0.731766    Uiso  ? C
   C51        1.0     0.155105     0.216005     0.874623    Uiso  ? C
   C51        1.0     0.155105     0.466005     0.017481    Uiso  ? C
   C51        1.0     0.155105     0.466005     0.160338    Uiso  ? C
   C51        1.0     0.155105     0.466005     0.303195    Uiso  ? C
   C51        1.0     0.155105     0.466005     0.446052    Uiso  ? C
   C51        1.0     0.155105     0.466005     0.588909    Uiso  ? C
   C51        1.0     0.155105     0.466005     0.731766    Uiso  ? C
   C51        1.0     0.155105     0.466005     0.874623    Uiso  ? C
   C51        1.0     0.155105     0.716005     0.017481    Uiso  ? C
   C51        1.0     0.155105     0.716005     0.160338    Uiso  ? C
   C51        1.0     0.155105     0.716005     0.303195    Uiso  ? C
   C51        1.0     0.155105     0.716005     0.446052    Uiso  ? C
   C51        1.0     0.155105     0.716005     0.588909    Uiso  ? C
   C51        1.0     0.155105     0.716005     0.731766    Uiso  ? C
   C51        1.0     0.155105     0.716005     0.874623    Uiso  ? C
   C51        1.0     0.155105     0.966005     0.017481    Uiso  ? C
   C51        1.0     0.155105     0.966005     0.160338    Uiso  ? C
   C51        1.0     0.155105     0.966005     0.303195    Uiso  ? C
   C51        1.0     0.155105     0.966005     0.446052    Uiso  ? C
   C51        1.0     0.155105     0.966005     0.588909    Uiso  ? C
   C51        1.0     0.155105     0.966005     0.731766    Uiso  ? C
   C51        1.0     0.155105     0.966005     0.874623    Uiso  ? C
   C51        1.0     0.488438     0.216005     0.017481    Uiso  ? C
   C51        1.0     0.488438     0.216005     0.160338    Uiso  ? C
   C51        1.0     0.488438     0.216005     0.303195    Uiso  ? C
   C51        1.0     0.488438     0.216005     0.446052    Uiso  ? C
   C51        1.0     0.488438     0.216005     0.588909    Uiso  ? C
   C51        1.0     0.488438     0.216005     0.731766    Uiso  ? C
   C51        1.0     0.488438     0.216005     0.874623    Uiso  ? C
   C51        1.0     0.488438     0.466005     0.017481    Uiso  ? C
   C51        1.0     0.488438     0.466005     0.160338    Uiso  ? C
   C51        1.0     0.488438     0.466005     0.303195    Uiso  ? C
   C51        1.0     0.488438     0.466005     0.446052    Uiso  ? C
   C51        1.0     0.488438     0.466005     0.588909    Uiso  ? C
   C51        1.0     0.488438     0.466005     0.731766    Uiso  ? C
   C51        1.0     0.488438     0.466005     0.874623    Uiso  ? C
   C51        1.0     0.488438     0.716005     0.017481    Uiso  ? C
   C51        1.0     0.488438     0.716005     0.160338    Uiso  ? C
   C51        1.0     0.488438     0.716005     0.303195    Uiso  ? C
   C51        1.0     0.488438     0.716005     0.446052    Uiso  ? C
   C51        1.0     0.488438     0.716005     0.588909    Uiso  ? C
   C51        1.0     0.488438     0.716005     0.731766    Uiso  ? C
   C51        1.0     0.488438     0.716005     0.874623    Uiso  ? C
   C51        1.0     0.488438     0.966005     0.017481    Uiso  ? C
   C51        1.0     0.488438     0.966005     0.160338    Uiso  ? C
   C51        1.0     0.488438     0.966005     0.303195    Uiso  ? C
   C51        1.0     0.488438     0.966005     0.446052    Uiso  ? C
   C51        1.0     0.488438     0.966005     0.588909    Uiso  ? C
   C51        1.0     0.488438     0.966005     0.731766    Uiso  ? C
   C51        1.0     0.488438     0.966005     0.874623    Uiso  ? C
   C51        1.0     0.821772     0.216005     0.017481    Uiso  ? C
   C51        1.0     0.821772     0.216005     0.160338    Uiso  ? C
   C51        1.0     0.821772     0.216005     0.303195    Uiso  ? C
   C51        1.0     0.821772     0.216005     0.446052    Uiso  ? C
   C51        1.0     0.821772     0.216005     0.588909    Uiso  ? C
   C51        1.0     0.821772     0.216005     0.731766    Uiso  ? C
   C51        1.0     0.821772     0.216005     0.874623    Uiso  ? C
   C51        1.0     0.821772     0.466005     0.017481    Uiso  ? C
   C51        1.0     0.821772     0.466005     0.160338    Uiso  ? C
   C51        1.0     0.821772     0.466005     0.303195    Uiso  ? C
   C51        1.0     0.821772     0.466005     0.446052    Uiso  ? C
   C51        1.0     0.821772     0.466005     0.588909    Uiso  ? C
   C51        1.0     0.821772     0.466005     0.731766    Uiso  ? C
   C51        1.0     0.821772     0.466005     0.874623    Uiso  ? C
   C51        1.0     0.821772     0.716005     0.017481    Uiso  ? C
   C51        1.0     0.821772     0.716005     0.160338    Uiso  ? C
   C51        1.0     0.821772     0.716005     0.303195    Uiso  ? C
   C51        1.0     0.821772     0.716005     0.446052    Uiso  ? C
   C51        1.0     0.821772     0.716005     0.588909    Uiso  ? C
   C51        1.0     0.821772     0.716005     0.731766    Uiso  ? C
   C51        1.0     0.821772     0.716005     0.874623    Uiso  ? C
   C51        1.0     0.821772     0.966005     0.017481    Uiso  ? C
   C51        1.0     0.821772     0.966005     0.160338    Uiso  ? C
   C51        1.0     0.821772     0.966005     0.303195    Uiso  ? C
   C51        1.0     0.821772     0.966005     0.446052    Uiso  ? C
   C51        1.0     0.821772     0.966005     0.588909    Uiso  ? C
   C51        1.0     0.821772     0.966005     0.731766    Uiso  ? C
   C51        1.0     0.821772     0.966005     0.874623    Uiso  ? C
   C52        1.0     0.155403     0.162613     0.017283    Uiso  ? C
   C52        1.0     0.155403     0.162613     0.160140    Uiso  ? C
   C52        1.0     0.155403     0.162613     0.302997    Uiso  ? C
   C52        1.0     0.155403     0.162613     0.445854    Uiso  ? C
   C52        1.0     0.155403     0.162613     0.588711    Uiso  ? C
   C52        1.0     0.155403     0.162613     0.731569    Uiso  ? C
   C52        1.0     0.155403     0.162613     0.874426    Uiso  ? C
   C52        1.0     0.155403     0.412613     0.017283    Uiso  ? C
   C52        1.0     0.155403     0.412613     0.160140    Uiso  ? C
   C52        1.0     0.155403     0.412613     0.302997    Uiso  ? C
   C52        1.0     0.155403     0.412613     0.445854    Uiso  ? C
   C52        1.0     0.155403     0.412613     0.588711    Uiso  ? C
   C52        1.0     0.155403     0.412613     0.731569    Uiso  ? C
   C52        1.0     0.155403     0.412613     0.874426    Uiso  ? C
   C52        1.0     0.155403     0.662613     0.017283    Uiso  ? C
   C52        1.0     0.155403     0.662613     0.160140    Uiso  ? C
   C52        1.0     0.155403     0.662613     0.302997    Uiso  ? C
   C52        1.0     0.155403     0.662613     0.445854    Uiso  ? C
   C52        1.0     0.155403     0.662613     0.588711    Uiso  ? C
   C52        1.0     0.155403     0.662613     0.731569    Uiso  ? C
   C52        1.0     0.155403     0.662613     0.874426    Uiso  ? C
   C52        1.0     0.155403     0.912613     0.017283    Uiso  ? C
   C52        1.0     0.155403     0.912613     0.160140    Uiso  ? C
   C52        1.0     0.155403     0.912613     0.302997    Uiso  ? C
   C52        1.0     0.155403     0.912613     0.445854    Uiso  ? C
   C52        1.0     0.155403     0.912613     0.588711    Uiso  ? C
   C52        1.0     0.155403     0.912613     0.731569    Uiso  ? C
   C52        1.0     0.155403     0.912613     0.874426    Uiso  ? C
   C52        1.0     0.488737     0.162613     0.017283    Uiso  ? C
   C52        1.0     0.488737     0.162613     0.160140    Uiso  ? C
   C52        1.0     0.488737     0.162613     0.302997    Uiso  ? C
   C52        1.0     0.488737     0.162613     0.445854    Uiso  ? C
   C52        1.0     0.488737     0.162613     0.588711    Uiso  ? C
   C52        1.0     0.488737     0.162613     0.731569    Uiso  ? C
   C52        1.0     0.488737     0.162613     0.874426    Uiso  ? C
   C52        1.0     0.488737     0.412613     0.017283    Uiso  ? C
   C52        1.0     0.488737     0.412613     0.160140    Uiso  ? C
   C52        1.0     0.488737     0.412613     0.302997    Uiso  ? C
   C52        1.0     0.488737     0.412613     0.445854    Uiso  ? C
   C52        1.0     0.488737     0.412613     0.588711    Uiso  ? C
   C52        1.0     0.488737     0.412613     0.731569    Uiso  ? C
   C52        1.0     0.488737     0.412613     0.874426    Uiso  ? C
   C52        1.0     0.488737     0.662613     0.017283    Uiso  ? C
   C52        1.0     0.488737     0.662613     0.160140    Uiso  ? C
   C52        1.0     0.488737     0.662613     0.302997    Uiso  ? C
   C52        1.0     0.488737     0.662613     0.445854    Uiso  ? C
   C52        1.0     0.488737     0.662613     0.588711    Uiso  ? C
   C52        1.0     0.488737     0.662613     0.731569    Uiso  ? C
   C52        1.0     0.488737     0.662613     0.874426    Uiso  ? C
   C52        1.0     0.488737     0.912613     0.017283    Uiso  ? C
   C52        1.0     0.488737     0.912613     0.160140    Uiso  ? C
   C52        1.0     0.488737     0.912613     0.302997    Uiso  ? C
   C52        1.0     0.488737     0.912613     0.445854    Uiso  ? C
   C52        1.0     0.488737     0.912613     0.588711    Uiso  ? C
   C52        1.0     0.488737     0.912613     0.731569    Uiso  ? C
   C52        1.0     0.488737     0.912613     0.874426    Uiso  ? C
   C52        1.0     0.822070     0.162613     0.017283    Uiso  ? C
   C52        1.0     0.822070     0.162613     0.160140    Uiso  ? C
   C52        1.0     0.822070     0.162613     0.302997    Uiso  ? C
   C52        1.0     0.822070     0.162613     0.445854    Uiso  ? C
   C52        1.0     0.822070     0.162613     0.588711    Uiso  ? C
   C52        1.0     0.822070     0.162613     0.731569    Uiso  ? C
   C52        1.0     0.822070     0.162613     0.874426    Uiso  ? C
   C52        1.0     0.822070     0.412613     0.017283    Uiso  ? C
   C52        1.0     0.822070     0.412613     0.160140    Uiso  ? C
   C52        1.0     0.822070     0.412613     0.302997    Uiso  ? C
   C52        1.0     0.822070     0.412613     0.445854    Uiso  ? C
   C52        1.0     0.822070     0.412613     0.588711    Uiso  ? C
   C52        1.0     0.822070     0.412613     0.731569    Uiso  ? C
   C52        1.0     0.822070     0.412613     0.874426    Uiso  ? C
   C52        1.0     0.822070     0.662613     0.017283    Uiso  ? C
   C52        1.0     0.822070     0.662613     0.160140    Uiso  ? C
   C52        1.0     0.822070     0.662613     0.302997    Uiso  ? C
   C52        1.0     0.822070     0.662613     0.445854    Uiso  ? C
   C52        1.0     0.822070     0.662613     0.588711    Uiso  ? C
   C52        1.0     0.822070     0.662613     0.731569    Uiso  ? C
   C52        1.0     0.822070     0.662613     0.874426    Uiso  ? C
   C52        1.0     0.822070     0.912613     0.017283    Uiso  ? C
   C52        1.0     0.822070     0.912613     0.160140    Uiso  ? C
   C52        1.0     0.822070     0.912613     0.302997    Uiso  ? C
   C52        1.0     0.822070     0.912613     0.445854    Uiso  ? C
   C52        1.0     0.822070     0.912613     0.588711    Uiso  ? C
   C52        1.0     0.822070     0.912613     0.731569    Uiso  ? C
   C52        1.0     0.822070     0.912613     0.874426    Uiso  ? C
   C53        1.0     0.187809     0.026078     0.001696    Uiso  ? C
   C53        1.0     0.187809     0.026078     0.144553    Uiso  ? C
   C53        1.0     0.187809     0.026078     0.287410    Uiso  ? C
   C53        1.0     0.187809     0.026078     0.430267    Uiso  ? C
   C53        1.0     0.187809     0.026078     0.573125    Uiso  ? C
   C53        1.0     0.187809     0.026078     0.715982    Uiso  ? C
   C53        1.0     0.187809     0.026078     0.858839    Uiso  ? C
   C53        1.0     0.187809     0.276078     0.001696    Uiso  ? C
   C53        1.0     0.187809     0.276078     0.144553    Uiso  ? C
   C53        1.0     0.187809     0.276078     0.287410    Uiso  ? C
   C53        1.0     0.187809     0.276078     0.430267    Uiso  ? C
   C53        1.0     0.187809     0.276078     0.573125    Uiso  ? C
   C53        1.0     0.187809     0.276078     0.715982    Uiso  ? C
   C53        1.0     0.187809     0.276078     0.858839    Uiso  ? C
   C53        1.0     0.187809     0.526078     0.001696    Uiso  ? C
   C53        1.0     0.187809     0.526078     0.144553    Uiso  ? C
   C53        1.0     0.187809     0.526078     0.287410    Uiso  ? C
   C53        1.0     0.187809     0.526078     0.430267    Uiso  ? C
   C53        1.0     0.187809     0.526078     0.573125    Uiso  ? C
   C53        1.0     0.187809     0.526078     0.715982    Uiso  ? C
   C53        1.0     0.187809     0.526078     0.858839    Uiso  ? C
   C53        1.0     0.187809     0.776078     0.001696    Uiso  ? C
   C53        1.0     0.187809     0.776078     0.144553    Uiso  ? C
   C53        1.0     0.187809     0.776078     0.287410    Uiso  ? C
   C53        1.0     0.187809     0.776078     0.430267    Uiso  ? C
   C53        1.0     0.187809     0.776078     0.573125    Uiso  ? C
   C53        1.0     0.187809     0.776078     0.715982    Uiso  ? C
   C53        1.0     0.187809     0.776078     0.858839    Uiso  ? C
   C53        1.0     0.521142     0.026078     0.001696    Uiso  ? C
   C53        1.0     0.521142     0.026078     0.144553    Uiso  ? C
   C53        1.0     0.521142     0.026078     0.287410    Uiso  ? C
   C53        1.0     0.521142     0.026078     0.430267    Uiso  ? C
   C53        1.0     0.521142     0.026078     0.573125    Uiso  ? C
   C53        1.0     0.521142     0.026078     0.715982    Uiso  ? C
   C53        1.0     0.521142     0.026078     0.858839    Uiso  ? C
   C53        1.0     0.521142     0.276078     0.001696    Uiso  ? C
   C53        1.0     0.521142     0.276078     0.144553    Uiso  ? C
   C53        1.0     0.521142     0.276078     0.287410    Uiso  ? C
   C53        1.0     0.521142     0.276078     0.430267    Uiso  ? C
   C53        1.0     0.521142     0.276078     0.573125    Uiso  ? C
   C53        1.0     0.521142     0.276078     0.715982    Uiso  ? C
   C53        1.0     0.521142     0.276078     0.858839    Uiso  ? C
   C53        1.0     0.521142     0.526078     0.001696    Uiso  ? C
   C53        1.0     0.521142     0.526078     0.144553    Uiso  ? C
   C53        1.0     0.521142     0.526078     0.287410    Uiso  ? C
   C53        1.0     0.521142     0.526078     0.430267    Uiso  ? C
   C53        1.0     0.521142     0.526078     0.573125    Uiso  ? C
   C53        1.0     0.521142     0.526078     0.715982    Uiso  ? C
   C53        1.0     0.521142     0.526078     0.858839    Uiso  ? C
   C53        1.0     0.521142     0.776078     0.001696    Uiso  ? C
   C53        1.0     0.521142     0.776078     0.144553    Uiso  ? C
   C53        1.0     0.521142     0.776078     0.287410    Uiso  ? C
   C53        1.0     0.521142     0.776078     0.430267    Uiso  ? C
   C53        1.0     0.521142     0.776078     0.573125    Uiso  ? C
   C53        1.0     0.521142     0.776078     0.715982    Uiso  ? C
   C53        1.0     0.521142     0.776078     0.858839    Uiso  ? C
   C53        1.0     0.854475     0.026078     0.001696    Uiso  ? C
   C53        1.0     0.854475     0.026078     0.144553    Uiso  ? C
   C53        1.0     0.854475     0.026078     0.287410    Uiso  ? C
   C53        1.0     0.854475     0.026078     0.430267    Uiso  ? C
   C53        1.0     0.854475     0.026078     0.573125    Uiso  ? C
   C53        1.0     0.854475     0.026078     0.715982    Uiso  ? C
   C53        1.0     0.854475     0.026078     0.858839    Uiso  ? C
   C53        1.0     0.854475     0.276078     0.001696    Uiso  ? C
   C53        1.0     0.854475     0.276078     0.144553    Uiso  ? C
   C53        1.0     0.854475     0.276078     0.287410    Uiso  ? C
   C53        1.0     0.854475     0.276078     0.430267    Uiso  ? C
   C53        1.0     0.854475     0.276078     0.573125    Uiso  ? C
   C53        1.0     0.854475     0.276078     0.715982    Uiso  ? C
   C53        1.0     0.854475     0.276078     0.858839    Uiso  ? C
   C53        1.0     0.854475     0.526078     0.001696    Uiso  ? C
   C53        1.0     0.854475     0.526078     0.144553    Uiso  ? C
   C53        1.0     0.854475     0.526078     0.287410    Uiso  ? C
   C53        1.0     0.854475     0.526078     0.430267    Uiso  ? C
   C53        1.0     0.854475     0.526078     0.573125    Uiso  ? C
   C53        1.0     0.854475     0.526078     0.715982    Uiso  ? C
   C53        1.0     0.854475     0.526078     0.858839    Uiso  ? C
   C53        1.0     0.854475     0.776078     0.001696    Uiso  ? C
   C53        1.0     0.854475     0.776078     0.144553    Uiso  ? C
   C53        1.0     0.854475     0.776078     0.287410    Uiso  ? C
   C53        1.0     0.854475     0.776078     0.430267    Uiso  ? C
   C53        1.0     0.854475     0.776078     0.573125    Uiso  ? C
   C53        1.0     0.854475     0.776078     0.715982    Uiso  ? C
   C53        1.0     0.854475     0.776078     0.858839    Uiso  ? C
   C54        1.0     0.128824     0.133277     0.000109    Uiso  ? C
   C54        1.0     0.128824     0.133277     0.142966    Uiso  ? C
   C54        1.0     0.128824     0.133277     0.285823    Uiso  ? C
   C54        1.0     0.128824     0.133277     0.428680    Uiso  ? C
   C54        1.0     0.128824     0.133277     0.571537    Uiso  ? C
   C54        1.0     0.128824     0.133277     0.714394    Uiso  ? C
   C54        1.0     0.128824     0.133277     0.857252    Uiso  ? C
   C54        1.0     0.128824     0.383277     0.000109    Uiso  ? C
   C54        1.0     0.128824     0.383277     0.142966    Uiso  ? C
   C54        1.0     0.128824     0.383277     0.285823    Uiso  ? C
   C54        1.0     0.128824     0.383277     0.428680    Uiso  ? C
   C54        1.0     0.128824     0.383277     0.571537    Uiso  ? C
   C54        1.0     0.128824     0.383277     0.714394    Uiso  ? C
   C54        1.0     0.128824     0.383277     0.857252    Uiso  ? C
   C54        1.0     0.128824     0.633277     0.000109    Uiso  ? C
   C54        1.0     0.128824     0.633277     0.142966    Uiso  ? C
   C54        1.0     0.128824     0.633277     0.285823    Uiso  ? C
   C54        1.0     0.128824     0.633277     0.428680    Uiso  ? C
   C54        1.0     0.128824     0.633277     0.571537    Uiso  ? C
   C54        1.0     0.128824     0.633277     0.714394    Uiso  ? C
   C54        1.0     0.128824     0.633277     0.857252    Uiso  ? C
   C54        1.0     0.128824     0.883277     0.000109    Uiso  ? C
   C54        1.0     0.128824     0.883277     0.142966    Uiso  ? C
   C54        1.0     0.128824     0.883277     0.285823    Uiso  ? C
   C54        1.0     0.128824     0.883277     0.428680    Uiso  ? C
   C54        1.0     0.128824     0.883277     0.571537    Uiso  ? C
   C54        1.0     0.128824     0.883277     0.714394    Uiso  ? C
   C54        1.0     0.128824     0.883277     0.857252    Uiso  ? C
   C54        1.0     0.462157     0.133277     0.000109    Uiso  ? C
   C54        1.0     0.462157     0.133277     0.142966    Uiso  ? C
   C54        1.0     0.462157     0.133277     0.285823    Uiso  ? C
   C54        1.0     0.462157     0.133277     0.428680    Uiso  ? C
   C54        1.0     0.462157     0.133277     0.571537    Uiso  ? C
   C54        1.0     0.462157     0.133277     0.714394    Uiso  ? C
   C54        1.0     0.462157     0.133277     0.857252    Uiso  ? C
   C54        1.0     0.462157     0.383277     0.000109    Uiso  ? C
   C54        1.0     0.462157     0.383277     0.142966    Uiso  ? C
   C54        1.0     0.462157     0.383277     0.285823    Uiso  ? C
   C54        1.0     0.462157     0.383277     0.428680    Uiso  ? C
   C54        1.0     0.462157     0.383277     0.571537    Uiso  ? C
   C54        1.0     0.462157     0.383277     0.714394    Uiso  ? C
   C54        1.0     0.462157     0.383277     0.857252    Uiso  ? C
   C54        1.0     0.462157     0.633277     0.000109    Uiso  ? C
   C54        1.0     0.462157     0.633277     0.142966    Uiso  ? C
   C54        1.0     0.462157     0.633277     0.285823    Uiso  ? C
   C54        1.0     0.462157     0.633277     0.428680    Uiso  ? C
   C54        1.0     0.462157     0.633277     0.571537    Uiso  ? C
   C54        1.0     0.462157     0.633277     0.714394    Uiso  ? C
   C54        1.0     0.462157     0.633277     0.857252    Uiso  ? C
   C54        1.0     0.462157     0.883277     0.000109    Uiso  ? C
   C54        1.0     0.462157     0.883277     0.142966    Uiso  ? C
   C54        1.0     0.462157     0.883277     0.285823    Uiso  ? C
   C54        1.0     0.462157     0.883277     0.428680    Uiso  ? C
   C54        1.0     0.462157     0.883277     0.571537    Uiso  ? C
   C54        1.0     0.462157     0.883277     0.714394    Uiso  ? C
   C54        1.0     0.462157     0.883277     0.857252    Uiso  ? C
   C54        1.0     0.795491     0.133277     0.000109    Uiso  ? C
   C54        1.0     0.795491     0.133277     0.142966    Uiso  ? C
   C54        1.0     0.795491     0.133277     0.285823    Uiso  ? C
   C54        1.0     0.795491     0.133277     0.428680    Uiso  ? C
   C54        1.0     0.795491     0.133277     0.571537    Uiso  ? C
   C54        1.0     0.795491     0.133277     0.714394    Uiso  ? C
   C54        1.0     0.795491     0.133277     0.857252    Uiso  ? C
   C54        1.0     0.795491     0.383277     0.000109    Uiso  ? C
   C54        1.0     0.795491     0.383277     0.142966    Uiso  ? C
   C54        1.0     0.795491     0.383277     0.285823    Uiso  ? C
   C54        1.0     0.795491     0.383277     0.428680    Uiso  ? C
   C54        1.0     0.795491     0.383277     0.571537    Uiso  ? C
   C54        1.0     0.795491     0.383277     0.714394    Uiso  ? C
   C54        1.0     0.795491     0.383277     0.857252    Uiso  ? C
   C54        1.0     0.795491     0.633277     0.000109    Uiso  ? C
   C54        1.0     0.795491     0.633277     0.142966    Uiso  ? C
   C54        1.0     0.795491     0.633277     0.285823    Uiso  ? C
   C54        1.0     0.795491     0.633277     0.428680    Uiso  ? C
   C54        1.0     0.795491     0.633277     0.571537    Uiso  ? C
   C54        1.0     0.795491     0.633277     0.714394    Uiso  ? C
   C54        1.0     0.795491     0.633277     0.857252    Uiso  ? C
   C54        1.0     0.795491     0.883277     0.000109    Uiso  ? C
   C54        1.0     0.795491     0.883277     0.142966    Uiso  ? C
   C54        1.0     0.795491     0.883277     0.285823    Uiso  ? C
   C54        1.0     0.795491     0.883277     0.428680    Uiso  ? C
   C54        1.0     0.795491     0.883277     0.571537    Uiso  ? C
   C54        1.0     0.795491     0.883277     0.714394    Uiso  ? C
   C54        1.0     0.795491     0.883277     0.857252    Uiso  ? C
   C55        1.0     0.129986     0.246919     0.000017    Uiso  ? C
   C55        1.0     0.129986     0.246919     0.142874    Uiso  ? C
   C55        1.0     0.129986     0.246919     0.285731    Uiso  ? C
   C55        1.0     0.129986     0.246919     0.428589    Uiso  ? C
   C55        1.0     0.129986     0.246919     0.571446    Uiso  ? C
   C55        1.0     0.129986     0.246919     0.714303    Uiso  ? C
   C55        1.0     0.129986     0.246919     0.857160    Uiso  ? C
   C55        1.0     0.129986     0.496919     0.000017    Uiso  ? C
   C55        1.0     0.129986     0.496919     0.142874    Uiso  ? C
   C55        1.0     0.129986     0.496919     0.285731    Uiso  ? C
   C55        1.0     0.129986     0.496919     0.428589    Uiso  ? C
   C55        1.0     0.129986     0.496919     0.571446    Uiso  ? C
   C55        1.0     0.129986     0.496919     0.714303    Uiso  ? C
   C55        1.0     0.129986     0.496919     0.857160    Uiso  ? C
   C55        1.0     0.129986     0.746919     0.000017    Uiso  ? C
   C55        1.0     0.129986     0.746919     0.142874    Uiso  ? C
   C55        1.0     0.129986     0.746919     0.285731    Uiso  ? C
   C55        1.0     0.129986     0.746919     0.428589    Uiso  ? C
   C55        1.0     0.129986     0.746919     0.571446    Uiso  ? C
   C55        1.0     0.129986     0.746919     0.714303    Uiso  ? C
   C55        1.0     0.129986     0.746919     0.857160    Uiso  ? C
   C55        1.0     0.129986     0.996919     0.000017    Uiso  ? C
   C55        1.0     0.129986     0.996919     0.142874    Uiso  ? C
   C55        1.0     0.129986     0.996919     0.285731    Uiso  ? C
   C55        1.0     0.129986     0.996919     0.428589    Uiso  ? C
   C55        1.0     0.129986     0.996919     0.571446    Uiso  ? C
   C55        1.0     0.129986     0.996919     0.714303    Uiso  ? C
   C55        1.0     0.129986     0.996919     0.857160    Uiso  ? C
   C55        1.0     0.463320     0.246919     0.000017    Uiso  ? C
   C55        1.0     0.463320     0.246919     0.142874    Uiso  ? C
   C55        1.0     0.463320     0.246919     0.285731    Uiso  ? C
   C55        1.0     0.463320     0.246919     0.428589    Uiso  ? C
   C55        1.0     0.463320     0.246919     0.571446    Uiso  ? C
   C55        1.0     0.463320     0.246919     0.714303    Uiso  ? C
   C55        1.0     0.463320     0.246919     0.857160    Uiso  ? C
   C55        1.0     0.463320     0.496919     0.000017    Uiso  ? C
   C55        1.0     0.463320     0.496919     0.142874    Uiso  ? C
   C55        1.0     0.463320     0.496919     0.285731    Uiso  ? C
   C55        1.0     0.463320     0.496919     0.428589    Uiso  ? C
   C55        1.0     0.463320     0.496919     0.571446    Uiso  ? C
   C55        1.0     0.463320     0.496919     0.714303    Uiso  ? C
   C55        1.0     0.463320     0.496919     0.857160    Uiso  ? C
   C55        1.0     0.463320     0.746919     0.000017    Uiso  ? C
   C55        1.0     0.463320     0.746919     0.142874    Uiso  ? C
   C55        1.0     0.463320     0.746919     0.285731    Uiso  ? C
   C55        1.0     0.463320     0.746919     0.428589    Uiso  ? C
   C55        1.0     0.463320     0.746919     0.571446    Uiso  ? C
   C55        1.0     0.463320     0.746919     0.714303    Uiso  ? C
   C55        1.0     0.463320     0.746919     0.857160    Uiso  ? C
   C55        1.0     0.463320     0.996919     0.000017    Uiso  ? C
   C55        1.0     0.463320     0.996919     0.142874    Uiso  ? C
   C55        1.0     0.463320     0.996919     0.285731    Uiso  ? C
   C55        1.0     0.463320     0.996919     0.428589    Uiso  ? C
   C55        1.0     0.463320     0.996919     0.571446    Uiso  ? C
   C55        1.0     0.463320     0.996919     0.714303    Uiso  ? C
   C55        1.0     0.463320     0.996919     0.857160    Uiso  ? C
   C55        1.0     0.796653     0.246919     0.000017    Uiso  ? C
   C55        1.0     0.796653     0.246919     0.142874    Uiso  ? C
   C55        1.0     0.796653     0.246919     0.285731    Uiso  ? C
   C55        1.0     0.796653     0.246919     0.428589    Uiso  ? C
   C55        1.0     0.796653     0.246919     0.571446    Uiso  ? C
   C55        1.0     0.796653     0.246919     0.714303    Uiso  ? C
   C55        1.0     0.796653     0.246919     0.857160    Uiso  ? C
   C55        1.0     0.796653     0.496919     0.000017    Uiso  ? C
   C55        1.0     0.796653     0.496919     0.142874    Uiso  ? C
   C55        1.0     0.796653     0.496919     0.285731    Uiso  ? C
   C55        1.0     0.796653     0.496919     0.428589    Uiso  ? C
   C55        1.0     0.796653     0.496919     0.571446    Uiso  ? C
   C55        1.0     0.796653     0.496919     0.714303    Uiso  ? C
   C55        1.0     0.796653     0.496919     0.857160    Uiso  ? C
   C55        1.0     0.796653     0.746919     0.000017    Uiso  ? C
   C55        1.0     0.796653     0.746919     0.142874    Uiso  ? C
   C55        1.0     0.796653     0.746919     0.285731    Uiso  ? C
   C55        1.0     0.796653     0.746919     0.428589    Uiso  ? C
   C55        1.0     0.796653     0.746919     0.571446    Uiso  ? C
   C55        1.0     0.796653     0.746919     0.714303    Uiso  ? C
   C55        1.0     0.796653     0.746919     0.857160    Uiso  ? C
   C55        1.0     0.796653     0.996919     0.000017    Uiso  ? C
   C55        1.0     0.796653     0.996919     0.142874    Uiso  ? C
   C55        1.0     0.796653     0.996919     0.285731    Uiso  ? C
   C55        1.0     0.796653     0.996919     0.428589    Uiso  ? C
   C55        1.0     0.796653     0.996919     0.571446    Uiso  ? C
   C55        1.0     0.796653     0.996919     0.714303    Uiso  ? C
   C55        1.0     0.796653     0.996919     0.857160    Uiso  ? C
   C56        1.0     0.184452     0.100645     0.001627    Uiso  ? C
   C56        1.0     0.184452     0.100645     0.144484    Uiso  ? C
   C56        1.0     0.184452     0.100645     0.287341    Uiso  ? C
   C56        1.0     0.184452     0.100645     0.430198    Uiso  ? C
   C56        1.0     0.184452     0.100645     0.573056    Uiso  ? C
   C56        1.0     0.184452     0.100645     0.715913    Uiso  ? C
   C56        1.0     0.184452     0.100645     0.858770    Uiso  ? C
   C56        1.0     0.184452     0.350645     0.001627    Uiso  ? C
   C56        1.0     0.184452     0.350645     0.144484    Uiso  ? C
   C56        1.0     0.184452     0.350645     0.287341    Uiso  ? C
   C56        1.0     0.184452     0.350645     0.430198    Uiso  ? C
   C56        1.0     0.184452     0.350645     0.573056    Uiso  ? C
   C56        1.0     0.184452     0.350645     0.715913    Uiso  ? C
   C56        1.0     0.184452     0.350645     0.858770    Uiso  ? C
   C56        1.0     0.184452     0.600645     0.001627    Uiso  ? C
   C56        1.0     0.184452     0.600645     0.144484    Uiso  ? C
   C56        1.0     0.184452     0.600645     0.287341    Uiso  ? C
   C56        1.0     0.184452     0.600645     0.430198    Uiso  ? C
   C56        1.0     0.184452     0.600645     0.573056    Uiso  ? C
   C56        1.0     0.184452     0.600645     0.715913    Uiso  ? C
   C56        1.0     0.184452     0.600645     0.858770    Uiso  ? C
   C56        1.0     0.184452     0.850645     0.001627    Uiso  ? C
   C56        1.0     0.184452     0.850645     0.144484    Uiso  ? C
   C56        1.0     0.184452     0.850645     0.287341    Uiso  ? C
   C56        1.0     0.184452     0.850645     0.430198    Uiso  ? C
   C56        1.0     0.184452     0.850645     0.573056    Uiso  ? C
   C56        1.0     0.184452     0.850645     0.715913    Uiso  ? C
   C56        1.0     0.184452     0.850645     0.858770    Uiso  ? C
   C56        1.0     0.517785     0.100645     0.001627    Uiso  ? C
   C56        1.0     0.517785     0.100645     0.144484    Uiso  ? C
   C56        1.0     0.517785     0.100645     0.287341    Uiso  ? C
   C56        1.0     0.517785     0.100645     0.430198    Uiso  ? C
   C56        1.0     0.517785     0.100645     0.573056    Uiso  ? C
   C56        1.0     0.517785     0.100645     0.715913    Uiso  ? C
   C56        1.0     0.517785     0.100645     0.858770    Uiso  ? C
   C56        1.0     0.517785     0.350645     0.001627    Uiso  ? C
   C56        1.0     0.517785     0.350645     0.144484    Uiso  ? C
   C56        1.0     0.517785     0.350645     0.287341    Uiso  ? C
   C56        1.0     0.517785     0.350645     0.430198    Uiso  ? C
   C56        1.0     0.517785     0.350645     0.573056    Uiso  ? C
   C56        1.0     0.517785     0.350645     0.715913    Uiso  ? C
   C56        1.0     0.517785     0.350645     0.858770    Uiso  ? C
   C56        1.0     0.517785     0.600645     0.001627    Uiso  ? C
   C56        1.0     0.517785     0.600645     0.144484    Uiso  ? C
   C56        1.0     0.517785     0.600645     0.287341    Uiso  ? C
   C56        1.0     0.517785     0.600645     0.430198    Uiso  ? C
   C56        1.0     0.517785     0.600645     0.573056    Uiso  ? C
   C56        1.0     0.517785     0.600645     0.715913    Uiso  ? C
   C56        1.0     0.517785     0.600645     0.858770    Uiso  ? C
   C56        1.0     0.517785     0.850645     0.001627    Uiso  ? C
   C56        1.0     0.517785     0.850645     0.144484    Uiso  ? C
   C56        1.0     0.517785     0.850645     0.287341    Uiso  ? C
   C56        1.0     0.517785     0.850645     0.430198    Uiso  ? C
   C56        1.0     0.517785     0.850645     0.573056    Uiso  ? C
   C56        1.0     0.517785     0.850645     0.715913    Uiso  ? C
   C56        1.0     0.517785     0.850645     0.858770    Uiso  ? C
   C56        1.0     0.851119     0.100645     0.001627    Uiso  ? C
   C56        1.0     0.851119     0.100645     0.144484    Uiso  ? C
   C56        1.0     0.851119     0.100645     0.287341    Uiso  ? C
   C56        1.0     0.851119     0.100645     0.430198    Uiso  ? C
   C56        1.0     0.851119     0.100645     0.573056    Uiso  ? C
   C56        1.0     0.851119     0.100645     0.715913    Uiso  ? C
   C56        1.0     0.851119     0.100645     0.858770    Uiso  ? C
   C56        1.0     0.851119     0.350645     0.001627    Uiso  ? C
   C56        1.0     0.851119     0.350645     0.144484    Uiso  ? C
   C56        1.0     0.851119     0.350645     0.287341    Uiso  ? C
   C56        1.0     0.851119     0.350645     0.430198    Uiso  ? C
   C56        1.0     0.851119     0.350645     0.573056    Uiso  ? C
   C56        1.0     0.851119     0.350645     0.715913    Uiso  ? C
   C56        1.0     0.851119     0.350645     0.858770    Uiso  ? C
   C56        1.0     0.851119     0.600645     0.001627    Uiso  ? C
   C56        1.0     0.851119     0.600645     0.144484    Uiso  ? C
   C56        1.0     0.851119     0.600645     0.287341    Uiso  ? C
   C56        1.0     0.851119     0.600645     0.430198    Uiso  ? C
   C56        1.0     0.851119     0.600645     0.573056    Uiso  ? C
   C56        1.0     0.851119     0.600645     0.715913    Uiso  ? C
   C56        1.0     0.851119     0.600645     0.858770    Uiso  ? C
   C56        1.0     0.851119     0.850645     0.001627    Uiso  ? C
   C56        1.0     0.851119     0.850645     0.144484    Uiso  ? C
   C56        1.0     0.851119     0.850645     0.287341    Uiso  ? C
   C56        1.0     0.851119     0.850645     0.430198    Uiso  ? C
   C56        1.0     0.851119     0.850645     0.573056    Uiso  ? C
   C56        1.0     0.851119     0.850645     0.715913    Uiso  ? C
   C56        1.0     0.851119     0.850645     0.858770    Uiso  ? C
   H1         1.0     0.030595     0.002640     0.138514    Uiso  ? H
   H1         1.0     0.030595     0.002640     0.281371    Uiso  ? H
   H1         1.0     0.030595     0.002640     0.424228    Uiso  ? H
   H1         1.0     0.030595     0.002640     0.567085    Uiso  ? H
   H1         1.0     0.030595     0.002640     0.709943    Uiso  ? H
   H1         1.0     0.030595     0.002640     0.852800    Uiso  ? H
   H1         1.0     0.030595     0.002640     0.995657    Uiso  ? H
   H1         1.0     0.030595     0.252640     0.138514    Uiso  ? H
   H1         1.0     0.030595     0.252640     0.281371    Uiso  ? H
   H1         1.0     0.030595     0.252640     0.424228    Uiso  ? H
   H1         1.0     0.030595     0.252640     0.567085    Uiso  ? H
   H1         1.0     0.030595     0.252640     0.709943    Uiso  ? H
   H1         1.0     0.030595     0.252640     0.852800    Uiso  ? H
   H1         1.0     0.030595     0.252640     0.995657    Uiso  ? H
   H1         1.0     0.030595     0.502640     0.138514    Uiso  ? H
   H1         1.0     0.030595     0.502640     0.281371    Uiso  ? H
   H1         1.0     0.030595     0.502640     0.424228    Uiso  ? H
   H1         1.0     0.030595     0.502640     0.567085    Uiso  ? H
   H1         1.0     0.030595     0.502640     0.709943    Uiso  ? H
   H1         1.0     0.030595     0.502640     0.852800    Uiso  ? H
   H1         1.0     0.030595     0.502640     0.995657    Uiso  ? H
   H1         1.0     0.030595     0.752640     0.138514    Uiso  ? H
   H1         1.0     0.030595     0.752640     0.281371    Uiso  ? H
   H1         1.0     0.030595     0.752640     0.424228    Uiso  ? H
   H1         1.0     0.030595     0.752640     0.567085    Uiso  ? H
   H1         1.0     0.030595     0.752640     0.709943    Uiso  ? H
   H1         1.0     0.030595     0.752640     0.852800    Uiso  ? H
   H1         1.0     0.030595     0.752640     0.995657    Uiso  ? H
   H1         1.0     0.363928     0.002640     0.138514    Uiso  ? H
   H1         1.0     0.363928     0.002640     0.281371    Uiso  ? H
   H1         1.0     0.363928     0.002640     0.424228    Uiso  ? H
   H1         1.0     0.363928     0.002640     0.567085    Uiso  ? H
   H1         1.0     0.363928     0.002640     0.709943    Uiso  ? H
   H1         1.0     0.363928     0.002640     0.852800    Uiso  ? H
   H1         1.0     0.363928     0.002640     0.995657    Uiso  ? H
   H1         1.0     0.363928     0.252640     0.138514    Uiso  ? H
   H1         1.0     0.363928     0.252640     0.281371    Uiso  ? H
   H1         1.0     0.363928     0.252640     0.424228    Uiso  ? H
   H1         1.0     0.363928     0.252640     0.567085    Uiso  ? H
   H1         1.0     0.363928     0.252640     0.709943    Uiso  ? H
   H1         1.0     0.363928     0.252640     0.852800    Uiso  ? H
   H1         1.0     0.363928     0.252640     0.995657    Uiso  ? H
   H1         1.0     0.363928     0.502640     0.138514    Uiso  ? H
   H1         1.0     0.363928     0.502640     0.281371    Uiso  ? H
   H1         1.0     0.363928     0.502640     0.424228    Uiso  ? H
   H1         1.0     0.363928     0.502640     0.567085    Uiso  ? H
   H1         1.0     0.363928     0.502640     0.709943    Uiso  ? H
   H1         1.0     0.363928     0.502640     0.852800    Uiso  ? H
   H1         1.0     0.363928     0.502640     0.995657    Uiso  ? H
   H1         1.0     0.363928     0.752640     0.138514    Uiso  ? H
   H1         1.0     0.363928     0.752640     0.281371    Uiso  ? H
   H1         1.0     0.363928     0.752640     0.424228    Uiso  ? H
   H1         1.0     0.363928     0.752640     0.567085    Uiso  ? H
   H1         1.0     0.363928     0.752640     0.709943    Uiso  ? H
   H1         1.0     0.363928     0.752640     0.852800    Uiso  ? H
   H1         1.0     0.363928     0.752640     0.995657    Uiso  ? H
   H1         1.0     0.697262     0.002640     0.138514    Uiso  ? H
   H1         1.0     0.697262     0.002640     0.281371    Uiso  ? H
   H1         1.0     0.697262     0.002640     0.424228    Uiso  ? H
   H1         1.0     0.697262     0.002640     0.567085    Uiso  ? H
   H1         1.0     0.697262     0.002640     0.709943    Uiso  ? H
   H1         1.0     0.697262     0.002640     0.852800    Uiso  ? H
   H1         1.0     0.697262     0.002640     0.995657    Uiso  ? H
   H1         1.0     0.697262     0.252640     0.138514    Uiso  ? H
   H1         1.0     0.697262     0.252640     0.281371    Uiso  ? H
   H1         1.0     0.697262     0.252640     0.424228    Uiso  ? H
   H1         1.0     0.697262     0.252640     0.567085    Uiso  ? H
   H1         1.0     0.697262     0.252640     0.709943    Uiso  ? H
   H1         1.0     0.697262     0.252640     0.852800    Uiso  ? H
   H1         1.0     0.697262     0.252640     0.995657    Uiso  ? H
   H1         1.0     0.697262     0.502640     0.138514    Uiso  ? H
   H1         1.0     0.697262     0.502640     0.281371    Uiso  ? H
   H1         1.0     0.697262     0.502640     0.424228    Uiso  ? H
   H1         1.0     0.697262     0.502640     0.567085    Uiso  ? H
   H1         1.0     0.697262     0.502640     0.709943    Uiso  ? H
   H1         1.0     0.697262     0.502640     0.852800    Uiso  ? H
   H1         1.0     0.697262     0.502640     0.995657    Uiso  ? H
   H1         1.0     0.697262     0.752640     0.138514    Uiso  ? H
   H1         1.0     0.697262     0.752640     0.281371    Uiso  ? H
   H1         1.0     0.697262     0.752640     0.424228    Uiso  ? H
   H1         1.0     0.697262     0.752640     0.567085    Uiso  ? H
   H1         1.0     0.697262     0.752640     0.709943    Uiso  ? H
   H1         1.0     0.697262     0.752640     0.852800    Uiso  ? H
   H1         1.0     0.697262     0.752640     0.995657    Uiso  ? H
   H2         1.0     0.026329     0.121569     0.137116    Uiso  ? H
   H2         1.0     0.026329     0.121569     0.279973    Uiso  ? H
   H2         1.0     0.026329     0.121569     0.422830    Uiso  ? H
   H2         1.0     0.026329     0.121569     0.565687    Uiso  ? H
   H2         1.0     0.026329     0.121569     0.708544    Uiso  ? H
   H2         1.0     0.026329     0.121569     0.851402    Uiso  ? H
   H2         1.0     0.026329     0.121569     0.994259    Uiso  ? H
   H2         1.0     0.026329     0.371569     0.137116    Uiso  ? H
   H2         1.0     0.026329     0.371569     0.279973    Uiso  ? H
   H2         1.0     0.026329     0.371569     0.422830    Uiso  ? H
   H2         1.0     0.026329     0.371569     0.565687    Uiso  ? H
   H2         1.0     0.026329     0.371569     0.708544    Uiso  ? H
   H2         1.0     0.026329     0.371569     0.851402    Uiso  ? H
   H2         1.0     0.026329     0.371569     0.994259    Uiso  ? H
   H2         1.0     0.026329     0.621570     0.137116    Uiso  ? H
   H2         1.0     0.026329     0.621570     0.279973    Uiso  ? H
   H2         1.0     0.026329     0.621570     0.422830    Uiso  ? H
   H2         1.0     0.026329     0.621570     0.565687    Uiso  ? H
   H2         1.0     0.026329     0.621570     0.708544    Uiso  ? H
   H2         1.0     0.026329     0.621570     0.851402    Uiso  ? H
   H2         1.0     0.026329     0.621570     0.994259    Uiso  ? H
   H2         1.0     0.026329     0.871570     0.137116    Uiso  ? H
   H2         1.0     0.026329     0.871570     0.279973    Uiso  ? H
   H2         1.0     0.026329     0.871570     0.422830    Uiso  ? H
   H2         1.0     0.026329     0.871570     0.565687    Uiso  ? H
   H2         1.0     0.026329     0.871570     0.708544    Uiso  ? H
   H2         1.0     0.026329     0.871570     0.851402    Uiso  ? H
   H2         1.0     0.026329     0.871570     0.994259    Uiso  ? H
   H2         1.0     0.359662     0.121569     0.137116    Uiso  ? H
   H2         1.0     0.359662     0.121569     0.279973    Uiso  ? H
   H2         1.0     0.359662     0.121569     0.422830    Uiso  ? H
   H2         1.0     0.359662     0.121569     0.565687    Uiso  ? H
   H2         1.0     0.359662     0.121569     0.708544    Uiso  ? H
   H2         1.0     0.359662     0.121569     0.851402    Uiso  ? H
   H2         1.0     0.359662     0.121569     0.994259    Uiso  ? H
   H2         1.0     0.359662     0.371569     0.137116    Uiso  ? H
   H2         1.0     0.359662     0.371569     0.279973    Uiso  ? H
   H2         1.0     0.359662     0.371569     0.422830    Uiso  ? H
   H2         1.0     0.359662     0.371569     0.565687    Uiso  ? H
   H2         1.0     0.359662     0.371569     0.708544    Uiso  ? H
   H2         1.0     0.359662     0.371569     0.851402    Uiso  ? H
   H2         1.0     0.359662     0.371569     0.994259    Uiso  ? H
   H2         1.0     0.359662     0.621570     0.137116    Uiso  ? H
   H2         1.0     0.359662     0.621570     0.279973    Uiso  ? H
   H2         1.0     0.359662     0.621570     0.422830    Uiso  ? H
   H2         1.0     0.359662     0.621570     0.565687    Uiso  ? H
   H2         1.0     0.359662     0.621570     0.708544    Uiso  ? H
   H2         1.0     0.359662     0.621570     0.851402    Uiso  ? H
   H2         1.0     0.359662     0.621570     0.994259    Uiso  ? H
   H2         1.0     0.359662     0.871570     0.137116    Uiso  ? H
   H2         1.0     0.359662     0.871570     0.279973    Uiso  ? H
   H2         1.0     0.359662     0.871570     0.422830    Uiso  ? H
   H2         1.0     0.359662     0.871570     0.565687    Uiso  ? H
   H2         1.0     0.359662     0.871570     0.708544    Uiso  ? H
   H2         1.0     0.359662     0.871570     0.851402    Uiso  ? H
   H2         1.0     0.359662     0.871570     0.994259    Uiso  ? H
   H2         1.0     0.692995     0.121569     0.137116    Uiso  ? H
   H2         1.0     0.692995     0.121569     0.279973    Uiso  ? H
   H2         1.0     0.692995     0.121569     0.422830    Uiso  ? H
   H2         1.0     0.692995     0.121569     0.565687    Uiso  ? H
   H2         1.0     0.692995     0.121569     0.708544    Uiso  ? H
   H2         1.0     0.692995     0.121569     0.851402    Uiso  ? H
   H2         1.0     0.692995     0.121569     0.994259    Uiso  ? H
   H2         1.0     0.692995     0.371569     0.137116    Uiso  ? H
   H2         1.0     0.692995     0.371569     0.279973    Uiso  ? H
   H2         1.0     0.692995     0.371569     0.422830    Uiso  ? H
   H2         1.0     0.692995     0.371569     0.565687    Uiso  ? H
   H2         1.0     0.692995     0.371569     0.708544    Uiso  ? H
   H2         1.0     0.692995     0.371569     0.851402    Uiso  ? H
   H2         1.0     0.692995     0.371569     0.994259    Uiso  ? H
   H2         1.0     0.692995     0.621570     0.137116    Uiso  ? H
   H2         1.0     0.692995     0.621570     0.279973    Uiso  ? H
   H2         1.0     0.692995     0.621570     0.422830    Uiso  ? H
   H2         1.0     0.692995     0.621570     0.565687    Uiso  ? H
   H2         1.0     0.692995     0.621570     0.708544    Uiso  ? H
   H2         1.0     0.692995     0.621570     0.851402    Uiso  ? H
   H2         1.0     0.692995     0.621570     0.994259    Uiso  ? H
   H2         1.0     0.692995     0.871570     0.137116    Uiso  ? H
   H2         1.0     0.692995     0.871570     0.279973    Uiso  ? H
   H2         1.0     0.692995     0.871570     0.422830    Uiso  ? H
   H2         1.0     0.692995     0.871570     0.565687    Uiso  ? H
   H2         1.0     0.692995     0.871570     0.708544    Uiso  ? H
   H2         1.0     0.692995     0.871570     0.851402    Uiso  ? H
   H2         1.0     0.692995     0.871570     0.994259    Uiso  ? H
   H3         1.0     0.004060     0.216191     0.131597    Uiso  ? H
   H3         1.0     0.004060     0.216191     0.274454    Uiso  ? H
   H3         1.0     0.004060     0.216191     0.417312    Uiso  ? H
   H3         1.0     0.004060     0.216191     0.560169    Uiso  ? H
   H3         1.0     0.004060     0.216191     0.703026    Uiso  ? H
   H3         1.0     0.004060     0.216191     0.845883    Uiso  ? H
   H3         1.0     0.004060     0.216191     0.988740    Uiso  ? H
   H3         1.0     0.004060     0.466191     0.131597    Uiso  ? H
   H3         1.0     0.004060     0.466191     0.274454    Uiso  ? H
   H3         1.0     0.004060     0.466191     0.417312    Uiso  ? H
   H3         1.0     0.004060     0.466191     0.560169    Uiso  ? H
   H3         1.0     0.004060     0.466191     0.703026    Uiso  ? H
   H3         1.0     0.004060     0.466191     0.845883    Uiso  ? H
   H3         1.0     0.004060     0.466191     0.988740    Uiso  ? H
   H3         1.0     0.004060     0.716191     0.131597    Uiso  ? H
   H3         1.0     0.004060     0.716191     0.274454    Uiso  ? H
   H3         1.0     0.004060     0.716191     0.417312    Uiso  ? H
   H3         1.0     0.004060     0.716191     0.560169    Uiso  ? H
   H3         1.0     0.004060     0.716191     0.703026    Uiso  ? H
   H3         1.0     0.004060     0.716191     0.845883    Uiso  ? H
   H3         1.0     0.004060     0.716191     0.988740    Uiso  ? H
   H3         1.0     0.004060     0.966191     0.131597    Uiso  ? H
   H3         1.0     0.004060     0.966191     0.274454    Uiso  ? H
   H3         1.0     0.004060     0.966191     0.417312    Uiso  ? H
   H3         1.0     0.004060     0.966191     0.560169    Uiso  ? H
   H3         1.0     0.004060     0.966191     0.703026    Uiso  ? H
   H3         1.0     0.004060     0.966191     0.845883    Uiso  ? H
   H3         1.0     0.004060     0.966191     0.988740    Uiso  ? H
   H3         1.0     0.337394     0.216191     0.131597    Uiso  ? H
   H3         1.0     0.337394     0.216191     0.274454    Uiso  ? H
   H3         1.0     0.337394     0.216191     0.417312    Uiso  ? H
   H3         1.0     0.337394     0.216191     0.560169    Uiso  ? H
   H3         1.0     0.337394     0.216191     0.703026    Uiso  ? H
   H3         1.0     0.337394     0.216191     0.845883    Uiso  ? H
   H3         1.0     0.337394     0.216191     0.988740    Uiso  ? H
   H3         1.0     0.337394     0.466191     0.131597    Uiso  ? H
   H3         1.0     0.337394     0.466191     0.274454    Uiso  ? H
   H3         1.0     0.337394     0.466191     0.417312    Uiso  ? H
   H3         1.0     0.337394     0.466191     0.560169    Uiso  ? H
   H3         1.0     0.337394     0.466191     0.703026    Uiso  ? H
   H3         1.0     0.337394     0.466191     0.845883    Uiso  ? H
   H3         1.0     0.337394     0.466191     0.988740    Uiso  ? H
   H3         1.0     0.337394     0.716191     0.131597    Uiso  ? H
   H3         1.0     0.337394     0.716191     0.274454    Uiso  ? H
   H3         1.0     0.337394     0.716191     0.417312    Uiso  ? H
   H3         1.0     0.337394     0.716191     0.560169    Uiso  ? H
   H3         1.0     0.337394     0.716191     0.703026    Uiso  ? H
   H3         1.0     0.337394     0.716191     0.845883    Uiso  ? H
   H3         1.0     0.337394     0.716191     0.988740    Uiso  ? H
   H3         1.0     0.337394     0.966191     0.131597    Uiso  ? H
   H3         1.0     0.337394     0.966191     0.274454    Uiso  ? H
   H3         1.0     0.337394     0.966191     0.417312    Uiso  ? H
   H3         1.0     0.337394     0.966191     0.560169    Uiso  ? H
   H3         1.0     0.337394     0.966191     0.703026    Uiso  ? H
   H3         1.0     0.337394     0.966191     0.845883    Uiso  ? H
   H3         1.0     0.337394     0.966191     0.988740    Uiso  ? H
   H3         1.0     0.670727     0.216191     0.131597    Uiso  ? H
   H3         1.0     0.670727     0.216191     0.274454    Uiso  ? H
   H3         1.0     0.670727     0.216191     0.417312    Uiso  ? H
   H3         1.0     0.670727     0.216191     0.560169    Uiso  ? H
   H3         1.0     0.670727     0.216191     0.703026    Uiso  ? H
   H3         1.0     0.670727     0.216191     0.845883    Uiso  ? H
   H3         1.0     0.670727     0.216191     0.988740    Uiso  ? H
   H3         1.0     0.670727     0.466191     0.131597    Uiso  ? H
   H3         1.0     0.670727     0.466191     0.274454    Uiso  ? H
   H3         1.0     0.670727     0.466191     0.417312    Uiso  ? H
   H3         1.0     0.670727     0.466191     0.560169    Uiso  ? H
   H3         1.0     0.670727     0.466191     0.703026    Uiso  ? H
   H3         1.0     0.670727     0.466191     0.845883    Uiso  ? H
   H3         1.0     0.670727     0.466191     0.988740    Uiso  ? H
   H3         1.0     0.670727     0.716191     0.131597    Uiso  ? H
   H3         1.0     0.670727     0.716191     0.274454    Uiso  ? H
   H3         1.0     0.670727     0.716191     0.417312    Uiso  ? H
   H3         1.0     0.670727     0.716191     0.560169    Uiso  ? H
   H3         1.0     0.670727     0.716191     0.703026    Uiso  ? H
   H3         1.0     0.670727     0.716191     0.845883    Uiso  ? H
   H3         1.0     0.670727     0.716191     0.988740    Uiso  ? H
   H3         1.0     0.670727     0.966191     0.131597    Uiso  ? H
   H3         1.0     0.670727     0.966191     0.274454    Uiso  ? H
   H3         1.0     0.670727     0.966191     0.417312    Uiso  ? H
   H3         1.0     0.670727     0.966191     0.560169    Uiso  ? H
   H3         1.0     0.670727     0.966191     0.703026    Uiso  ? H
   H3         1.0     0.670727     0.966191     0.845883    Uiso  ? H
   H3         1.0     0.670727     0.966191     0.988740    Uiso  ? H
   H4         1.0     0.119076     0.125501     0.126848    Uiso  ? H
   H4         1.0     0.119076     0.125501     0.269705    Uiso  ? H
   H4         1.0     0.119076     0.125501     0.412563    Uiso  ? H
   H4         1.0     0.119076     0.125501     0.555420    Uiso  ? H
   H4         1.0     0.119076     0.125501     0.698277    Uiso  ? H
   H4         1.0     0.119076     0.125501     0.841134    Uiso  ? H
   H4         1.0     0.119076     0.125501     0.983991    Uiso  ? H
   H4         1.0     0.119076     0.375501     0.126848    Uiso  ? H
   H4         1.0     0.119076     0.375501     0.269705    Uiso  ? H
   H4         1.0     0.119076     0.375501     0.412563    Uiso  ? H
   H4         1.0     0.119076     0.375501     0.555420    Uiso  ? H
   H4         1.0     0.119076     0.375501     0.698277    Uiso  ? H
   H4         1.0     0.119076     0.375501     0.841134    Uiso  ? H
   H4         1.0     0.119076     0.375501     0.983991    Uiso  ? H
   H4         1.0     0.119076     0.625501     0.126848    Uiso  ? H
   H4         1.0     0.119076     0.625501     0.269705    Uiso  ? H
   H4         1.0     0.119076     0.625501     0.412563    Uiso  ? H
   H4         1.0     0.119076     0.625501     0.555420    Uiso  ? H
   H4         1.0     0.119076     0.625501     0.698277    Uiso  ? H
   H4         1.0     0.119076     0.625501     0.841134    Uiso  ? H
   H4         1.0     0.119076     0.625501     0.983991    Uiso  ? H
   H4         1.0     0.119076     0.875501     0.126848    Uiso  ? H
   H4         1.0     0.119076     0.875501     0.269705    Uiso  ? H
   H4         1.0     0.119076     0.875501     0.412563    Uiso  ? H
   H4         1.0     0.119076     0.875501     0.555420    Uiso  ? H
   H4         1.0     0.119076     0.875501     0.698277    Uiso  ? H
   H4         1.0     0.119076     0.875501     0.841134    Uiso  ? H
   H4         1.0     0.119076     0.875501     0.983991    Uiso  ? H
   H4         1.0     0.452409     0.125501     0.126848    Uiso  ? H
   H4         1.0     0.452409     0.125501     0.269705    Uiso  ? H
   H4         1.0     0.452409     0.125501     0.412563    Uiso  ? H
   H4         1.0     0.452409     0.125501     0.555420    Uiso  ? H
   H4         1.0     0.452409     0.125501     0.698277    Uiso  ? H
   H4         1.0     0.452409     0.125501     0.841134    Uiso  ? H
   H4         1.0     0.452409     0.125501     0.983991    Uiso  ? H
   H4         1.0     0.452409     0.375501     0.126848    Uiso  ? H
   H4         1.0     0.452409     0.375501     0.269705    Uiso  ? H
   H4         1.0     0.452409     0.375501     0.412563    Uiso  ? H
   H4         1.0     0.452409     0.375501     0.555420    Uiso  ? H
   H4         1.0     0.452409     0.375501     0.698277    Uiso  ? H
   H4         1.0     0.452409     0.375501     0.841134    Uiso  ? H
   H4         1.0     0.452409     0.375501     0.983991    Uiso  ? H
   H4         1.0     0.452409     0.625501     0.126848    Uiso  ? H
   H4         1.0     0.452409     0.625501     0.269705    Uiso  ? H
   H4         1.0     0.452409     0.625501     0.412563    Uiso  ? H
   H4         1.0     0.452409     0.625501     0.555420    Uiso  ? H
   H4         1.0     0.452409     0.625501     0.698277    Uiso  ? H
   H4         1.0     0.452409     0.625501     0.841134    Uiso  ? H
   H4         1.0     0.452409     0.625501     0.983991    Uiso  ? H
   H4         1.0     0.452409     0.875501     0.126848    Uiso  ? H
   H4         1.0     0.452409     0.875501     0.269705    Uiso  ? H
   H4         1.0     0.452409     0.875501     0.412563    Uiso  ? H
   H4         1.0     0.452409     0.875501     0.555420    Uiso  ? H
   H4         1.0     0.452409     0.875501     0.698277    Uiso  ? H
   H4         1.0     0.452409     0.875501     0.841134    Uiso  ? H
   H4         1.0     0.452409     0.875501     0.983991    Uiso  ? H
   H4         1.0     0.785742     0.125501     0.126848    Uiso  ? H
   H4         1.0     0.785742     0.125501     0.269705    Uiso  ? H
   H4         1.0     0.785742     0.125501     0.412563    Uiso  ? H
   H4         1.0     0.785742     0.125501     0.555420    Uiso  ? H
   H4         1.0     0.785742     0.125501     0.698277    Uiso  ? H
   H4         1.0     0.785742     0.125501     0.841134    Uiso  ? H
   H4         1.0     0.785742     0.125501     0.983991    Uiso  ? H
   H4         1.0     0.785742     0.375501     0.126848    Uiso  ? H
   H4         1.0     0.785742     0.375501     0.269705    Uiso  ? H
   H4         1.0     0.785742     0.375501     0.412563    Uiso  ? H
   H4         1.0     0.785742     0.375501     0.555420    Uiso  ? H
   H4         1.0     0.785742     0.375501     0.698277    Uiso  ? H
   H4         1.0     0.785742     0.375501     0.841134    Uiso  ? H
   H4         1.0     0.785742     0.375501     0.983991    Uiso  ? H
   H4         1.0     0.785742     0.625501     0.126848    Uiso  ? H
   H4         1.0     0.785742     0.625501     0.269705    Uiso  ? H
   H4         1.0     0.785742     0.625501     0.412563    Uiso  ? H
   H4         1.0     0.785742     0.625501     0.555420    Uiso  ? H
   H4         1.0     0.785742     0.625501     0.698277    Uiso  ? H
   H4         1.0     0.785742     0.625501     0.841134    Uiso  ? H
   H4         1.0     0.785742     0.625501     0.983991    Uiso  ? H
   H4         1.0     0.785742     0.875501     0.126848    Uiso  ? H
   H4         1.0     0.785742     0.875501     0.269705    Uiso  ? H
   H4         1.0     0.785742     0.875501     0.412563    Uiso  ? H
   H4         1.0     0.785742     0.875501     0.555420    Uiso  ? H
   H4         1.0     0.785742     0.875501     0.698277    Uiso  ? H
   H4         1.0     0.785742     0.875501     0.841134    Uiso  ? H
   H4         1.0     0.785742     0.875501     0.983991    Uiso  ? H
   H5         1.0     0.121549     0.006132     0.126475    Uiso  ? H
   H5         1.0     0.121549     0.006132     0.269332    Uiso  ? H
   H5         1.0     0.121549     0.006132     0.412190    Uiso  ? H
   H5         1.0     0.121549     0.006132     0.555047    Uiso  ? H
   H5         1.0     0.121549     0.006132     0.697904    Uiso  ? H
   H5         1.0     0.121549     0.006132     0.840761    Uiso  ? H
   H5         1.0     0.121549     0.006132     0.983618    Uiso  ? H
   H5         1.0     0.121549     0.256132     0.126475    Uiso  ? H
   H5         1.0     0.121549     0.256132     0.269332    Uiso  ? H
   H5         1.0     0.121549     0.256132     0.412190    Uiso  ? H
   H5         1.0     0.121549     0.256132     0.555047    Uiso  ? H
   H5         1.0     0.121549     0.256132     0.697904    Uiso  ? H
   H5         1.0     0.121549     0.256132     0.840761    Uiso  ? H
   H5         1.0     0.121549     0.256132     0.983618    Uiso  ? H
   H5         1.0     0.121549     0.506132     0.126475    Uiso  ? H
   H5         1.0     0.121549     0.506132     0.269332    Uiso  ? H
   H5         1.0     0.121549     0.506132     0.412190    Uiso  ? H
   H5         1.0     0.121549     0.506132     0.555047    Uiso  ? H
   H5         1.0     0.121549     0.506132     0.697904    Uiso  ? H
   H5         1.0     0.121549     0.506132     0.840761    Uiso  ? H
   H5         1.0     0.121549     0.506132     0.983618    Uiso  ? H
   H5         1.0     0.121549     0.756132     0.126475    Uiso  ? H
   H5         1.0     0.121549     0.756132     0.269332    Uiso  ? H
   H5         1.0     0.121549     0.756132     0.412190    Uiso  ? H
   H5         1.0     0.121549     0.756132     0.555047    Uiso  ? H
   H5         1.0     0.121549     0.756132     0.697904    Uiso  ? H
   H5         1.0     0.121549     0.756132     0.840761    Uiso  ? H
   H5         1.0     0.121549     0.756132     0.983618    Uiso  ? H
   H5         1.0     0.454882     0.006132     0.126475    Uiso  ? H
   H5         1.0     0.454882     0.006132     0.269332    Uiso  ? H
   H5         1.0     0.454882     0.006132     0.412190    Uiso  ? H
   H5         1.0     0.454882     0.006132     0.555047    Uiso  ? H
   H5         1.0     0.454882     0.006132     0.697904    Uiso  ? H
   H5         1.0     0.454882     0.006132     0.840761    Uiso  ? H
   H5         1.0     0.454882     0.006132     0.983618    Uiso  ? H
   H5         1.0     0.454882     0.256132     0.126475    Uiso  ? H
   H5         1.0     0.454882     0.256132     0.269332    Uiso  ? H
   H5         1.0     0.454882     0.256132     0.412190    Uiso  ? H
   H5         1.0     0.454882     0.256132     0.555047    Uiso  ? H
   H5         1.0     0.454882     0.256132     0.697904    Uiso  ? H
   H5         1.0     0.454882     0.256132     0.840761    Uiso  ? H
   H5         1.0     0.454882     0.256132     0.983618    Uiso  ? H
   H5         1.0     0.454882     0.506132     0.126475    Uiso  ? H
   H5         1.0     0.454882     0.506132     0.269332    Uiso  ? H
   H5         1.0     0.454882     0.506132     0.412190    Uiso  ? H
   H5         1.0     0.454882     0.506132     0.555047    Uiso  ? H
   H5         1.0     0.454882     0.506132     0.697904    Uiso  ? H
   H5         1.0     0.454882     0.506132     0.840761    Uiso  ? H
   H5         1.0     0.454882     0.506132     0.983618    Uiso  ? H
   H5         1.0     0.454882     0.756132     0.126475    Uiso  ? H
   H5         1.0     0.454882     0.756132     0.269332    Uiso  ? H
   H5         1.0     0.454882     0.756132     0.412190    Uiso  ? H
   H5         1.0     0.454882     0.756132     0.555047    Uiso  ? H
   H5         1.0     0.454882     0.756132     0.697904    Uiso  ? H
   H5         1.0     0.454882     0.756132     0.840761    Uiso  ? H
   H5         1.0     0.454882     0.756132     0.983618    Uiso  ? H
   H5         1.0     0.788215     0.006132     0.126475    Uiso  ? H
   H5         1.0     0.788215     0.006132     0.269332    Uiso  ? H
   H5         1.0     0.788215     0.006132     0.412190    Uiso  ? H
   H5         1.0     0.788215     0.006132     0.555047    Uiso  ? H
   H5         1.0     0.788215     0.006132     0.697904    Uiso  ? H
   H5         1.0     0.788215     0.006132     0.840761    Uiso  ? H
   H5         1.0     0.788215     0.006132     0.983618    Uiso  ? H
   H5         1.0     0.788215     0.256132     0.126475    Uiso  ? H
   H5         1.0     0.788215     0.256132     0.269332    Uiso  ? H
   H5         1.0     0.788215     0.256132     0.412190    Uiso  ? H
   H5         1.0     0.788215     0.256132     0.555047    Uiso  ? H
   H5         1.0     0.788215     0.256132     0.697904    Uiso  ? H
   H5         1.0     0.788215     0.256132     0.840761    Uiso  ? H
   H5         1.0     0.788215     0.256132     0.983618    Uiso  ? H
   H5         1.0     0.788215     0.506132     0.126475    Uiso  ? H
   H5         1.0     0.788215     0.506132     0.269332    Uiso  ? H
   H5         1.0     0.788215     0.506132     0.412190    Uiso  ? H
   H5         1.0     0.788215     0.506132     0.555047    Uiso  ? H
   H5         1.0     0.788215     0.506132     0.697904    Uiso  ? H
   H5         1.0     0.788215     0.506132     0.840761    Uiso  ? H
   H5         1.0     0.788215     0.506132     0.983618    Uiso  ? H
   H5         1.0     0.788215     0.756132     0.126475    Uiso  ? H
   H5         1.0     0.788215     0.756132     0.269332    Uiso  ? H
   H5         1.0     0.788215     0.756132     0.412190    Uiso  ? H
   H5         1.0     0.788215     0.756132     0.555047    Uiso  ? H
   H5         1.0     0.788215     0.756132     0.697904    Uiso  ? H
   H5         1.0     0.788215     0.756132     0.840761    Uiso  ? H
   H5         1.0     0.788215     0.756132     0.983618    Uiso  ? H
   H6         1.0     0.333188     0.158026     0.130234    Uiso  ? H
   H6         1.0     0.333188     0.158026     0.273091    Uiso  ? H
   H6         1.0     0.333188     0.158026     0.415948    Uiso  ? H
   H6         1.0     0.333188     0.158026     0.558806    Uiso  ? H
   H6         1.0     0.333188     0.158026     0.701663    Uiso  ? H
   H6         1.0     0.333188     0.158026     0.844520    Uiso  ? H
   H6         1.0     0.333188     0.158026     0.987377    Uiso  ? H
   H6         1.0     0.333188     0.408026     0.130234    Uiso  ? H
   H6         1.0     0.333188     0.408026     0.273091    Uiso  ? H
   H6         1.0     0.333188     0.408026     0.415948    Uiso  ? H
   H6         1.0     0.333188     0.408026     0.558806    Uiso  ? H
   H6         1.0     0.333188     0.408026     0.701663    Uiso  ? H
   H6         1.0     0.333188     0.408026     0.844520    Uiso  ? H
   H6         1.0     0.333188     0.408026     0.987377    Uiso  ? H
   H6         1.0     0.333188     0.658026     0.130234    Uiso  ? H
   H6         1.0     0.333188     0.658026     0.273091    Uiso  ? H
   H6         1.0     0.333188     0.658026     0.415948    Uiso  ? H
   H6         1.0     0.333188     0.658026     0.558806    Uiso  ? H
   H6         1.0     0.333188     0.658026     0.701663    Uiso  ? H
   H6         1.0     0.333188     0.658026     0.844520    Uiso  ? H
   H6         1.0     0.333188     0.658026     0.987377    Uiso  ? H
   H6         1.0     0.333188     0.908026     0.130234    Uiso  ? H
   H6         1.0     0.333188     0.908026     0.273091    Uiso  ? H
   H6         1.0     0.333188     0.908026     0.415948    Uiso  ? H
   H6         1.0     0.333188     0.908026     0.558806    Uiso  ? H
   H6         1.0     0.333188     0.908026     0.701663    Uiso  ? H
   H6         1.0     0.333188     0.908026     0.844520    Uiso  ? H
   H6         1.0     0.333188     0.908026     0.987377    Uiso  ? H
   H6         1.0     0.666521     0.158026     0.130234    Uiso  ? H
   H6         1.0     0.666521     0.158026     0.273091    Uiso  ? H
   H6         1.0     0.666521     0.158026     0.415948    Uiso  ? H
   H6         1.0     0.666521     0.158026     0.558806    Uiso  ? H
   H6         1.0     0.666521     0.158026     0.701663    Uiso  ? H
   H6         1.0     0.666521     0.158026     0.844520    Uiso  ? H
   H6         1.0     0.666521     0.158026     0.987377    Uiso  ? H
   H6         1.0     0.666521     0.408026     0.130234    Uiso  ? H
   H6         1.0     0.666521     0.408026     0.273091    Uiso  ? H
   H6         1.0     0.666521     0.408026     0.415948    Uiso  ? H
   H6         1.0     0.666521     0.408026     0.558806    Uiso  ? H
   H6         1.0     0.666521     0.408026     0.701663    Uiso  ? H
   H6         1.0     0.666521     0.408026     0.844520    Uiso  ? H
   H6         1.0     0.666521     0.408026     0.987377    Uiso  ? H
   H6         1.0     0.666521     0.658026     0.130234    Uiso  ? H
   H6         1.0     0.666521     0.658026     0.273091    Uiso  ? H
   H6         1.0     0.666521     0.658026     0.415948    Uiso  ? H
   H6         1.0     0.666521     0.658026     0.558806    Uiso  ? H
   H6         1.0     0.666521     0.658026     0.701663    Uiso  ? H
   H6         1.0     0.666521     0.658026     0.844520    Uiso  ? H
   H6         1.0     0.666521     0.658026     0.987377    Uiso  ? H
   H6         1.0     0.666521     0.908026     0.130234    Uiso  ? H
   H6         1.0     0.666521     0.908026     0.273091    Uiso  ? H
   H6         1.0     0.666521     0.908026     0.415948    Uiso  ? H
   H6         1.0     0.666521     0.908026     0.558806    Uiso  ? H
   H6         1.0     0.666521     0.908026     0.701663    Uiso  ? H
   H6         1.0     0.666521     0.908026     0.844520    Uiso  ? H
   H6         1.0     0.666521     0.908026     0.987377    Uiso  ? H
   H6         1.0     0.999855     0.158026     0.130234    Uiso  ? H
   H6         1.0     0.999855     0.158026     0.273091    Uiso  ? H
   H6         1.0     0.999855     0.158026     0.415948    Uiso  ? H
   H6         1.0     0.999855     0.158026     0.558806    Uiso  ? H
   H6         1.0     0.999855     0.158026     0.701663    Uiso  ? H
   H6         1.0     0.999855     0.158026     0.844520    Uiso  ? H
   H6         1.0     0.999855     0.158026     0.987377    Uiso  ? H
   H6         1.0     0.999855     0.408026     0.130234    Uiso  ? H
   H6         1.0     0.999855     0.408026     0.273091    Uiso  ? H
   H6         1.0     0.999855     0.408026     0.415948    Uiso  ? H
   H6         1.0     0.999855     0.408026     0.558806    Uiso  ? H
   H6         1.0     0.999855     0.408026     0.701663    Uiso  ? H
   H6         1.0     0.999855     0.408026     0.844520    Uiso  ? H
   H6         1.0     0.999855     0.408026     0.987377    Uiso  ? H
   H6         1.0     0.999855     0.658026     0.130234    Uiso  ? H
   H6         1.0     0.999855     0.658026     0.273091    Uiso  ? H
   H6         1.0     0.999855     0.658026     0.415948    Uiso  ? H
   H6         1.0     0.999855     0.658026     0.558806    Uiso  ? H
   H6         1.0     0.999855     0.658026     0.701663    Uiso  ? H
   H6         1.0     0.999855     0.658026     0.844520    Uiso  ? H
   H6         1.0     0.999855     0.658026     0.987377    Uiso  ? H
   H6         1.0     0.999855     0.908026     0.130234    Uiso  ? H
   H6         1.0     0.999855     0.908026     0.273091    Uiso  ? H
   H6         1.0     0.999855     0.908026     0.415948    Uiso  ? H
   H6         1.0     0.999855     0.908026     0.558806    Uiso  ? H
   H6         1.0     0.999855     0.908026     0.701663    Uiso  ? H
   H6         1.0     0.999855     0.908026     0.844520    Uiso  ? H
   H6         1.0     0.999855     0.908026     0.987377    Uiso  ? H
   H7         1.0     0.145029     0.162210     0.119363    Uiso  ? H
   H7         1.0     0.145029     0.162210     0.262220    Uiso  ? H
   H7         1.0     0.145029     0.162210     0.405078    Uiso  ? H
   H7         1.0     0.145029     0.162210     0.547935    Uiso  ? H
   H7         1.0     0.145029     0.162210     0.690792    Uiso  ? H
   H7         1.0     0.145029     0.162210     0.833649    Uiso  ? H
   H7         1.0     0.145029     0.162210     0.976506    Uiso  ? H
   H7         1.0     0.145029     0.412210     0.119363    Uiso  ? H
   H7         1.0     0.145029     0.412210     0.262220    Uiso  ? H
   H7         1.0     0.145029     0.412210     0.405078    Uiso  ? H
   H7         1.0     0.145029     0.412210     0.547935    Uiso  ? H
   H7         1.0     0.145029     0.412210     0.690792    Uiso  ? H
   H7         1.0     0.145029     0.412210     0.833649    Uiso  ? H
   H7         1.0     0.145029     0.412210     0.976506    Uiso  ? H
   H7         1.0     0.145029     0.662210     0.119363    Uiso  ? H
   H7         1.0     0.145029     0.662210     0.262220    Uiso  ? H
   H7         1.0     0.145029     0.662210     0.405078    Uiso  ? H
   H7         1.0     0.145029     0.662210     0.547935    Uiso  ? H
   H7         1.0     0.145029     0.662210     0.690792    Uiso  ? H
   H7         1.0     0.145029     0.662210     0.833649    Uiso  ? H
   H7         1.0     0.145029     0.662210     0.976506    Uiso  ? H
   H7         1.0     0.145029     0.912210     0.119363    Uiso  ? H
   H7         1.0     0.145029     0.912210     0.262220    Uiso  ? H
   H7         1.0     0.145029     0.912210     0.405078    Uiso  ? H
   H7         1.0     0.145029     0.912210     0.547935    Uiso  ? H
   H7         1.0     0.145029     0.912210     0.690792    Uiso  ? H
   H7         1.0     0.145029     0.912210     0.833649    Uiso  ? H
   H7         1.0     0.145029     0.912210     0.976506    Uiso  ? H
   H7         1.0     0.478363     0.162210     0.119363    Uiso  ? H
   H7         1.0     0.478363     0.162210     0.262220    Uiso  ? H
   H7         1.0     0.478363     0.162210     0.405078    Uiso  ? H
   H7         1.0     0.478363     0.162210     0.547935    Uiso  ? H
   H7         1.0     0.478363     0.162210     0.690792    Uiso  ? H
   H7         1.0     0.478363     0.162210     0.833649    Uiso  ? H
   H7         1.0     0.478363     0.162210     0.976506    Uiso  ? H
   H7         1.0     0.478363     0.412210     0.119363    Uiso  ? H
   H7         1.0     0.478363     0.412210     0.262220    Uiso  ? H
   H7         1.0     0.478363     0.412210     0.405078    Uiso  ? H
   H7         1.0     0.478363     0.412210     0.547935    Uiso  ? H
   H7         1.0     0.478363     0.412210     0.690792    Uiso  ? H
   H7         1.0     0.478363     0.412210     0.833649    Uiso  ? H
   H7         1.0     0.478363     0.412210     0.976506    Uiso  ? H
   H7         1.0     0.478363     0.662210     0.119363    Uiso  ? H
   H7         1.0     0.478363     0.662210     0.262220    Uiso  ? H
   H7         1.0     0.478363     0.662210     0.405078    Uiso  ? H
   H7         1.0     0.478363     0.662210     0.547935    Uiso  ? H
   H7         1.0     0.478363     0.662210     0.690792    Uiso  ? H
   H7         1.0     0.478363     0.662210     0.833649    Uiso  ? H
   H7         1.0     0.478363     0.662210     0.976506    Uiso  ? H
   H7         1.0     0.478363     0.912210     0.119363    Uiso  ? H
   H7         1.0     0.478363     0.912210     0.262220    Uiso  ? H
   H7         1.0     0.478363     0.912210     0.405078    Uiso  ? H
   H7         1.0     0.478363     0.912210     0.547935    Uiso  ? H
   H7         1.0     0.478363     0.912210     0.690792    Uiso  ? H
   H7         1.0     0.478363     0.912210     0.833649    Uiso  ? H
   H7         1.0     0.478363     0.912210     0.976506    Uiso  ? H
   H7         1.0     0.811696     0.162210     0.119363    Uiso  ? H
   H7         1.0     0.811696     0.162210     0.262220    Uiso  ? H
   H7         1.0     0.811696     0.162210     0.405078    Uiso  ? H
   H7         1.0     0.811696     0.162210     0.547935    Uiso  ? H
   H7         1.0     0.811696     0.162210     0.690792    Uiso  ? H
   H7         1.0     0.811696     0.162210     0.833649    Uiso  ? H
   H7         1.0     0.811696     0.162210     0.976506    Uiso  ? H
   H7         1.0     0.811696     0.412210     0.119363    Uiso  ? H
   H7         1.0     0.811696     0.412210     0.262220    Uiso  ? H
   H7         1.0     0.811696     0.412210     0.405078    Uiso  ? H
   H7         1.0     0.811696     0.412210     0.547935    Uiso  ? H
   H7         1.0     0.811696     0.412210     0.690792    Uiso  ? H
   H7         1.0     0.811696     0.412210     0.833649    Uiso  ? H
   H7         1.0     0.811696     0.412210     0.976506    Uiso  ? H
   H7         1.0     0.811696     0.662210     0.119363    Uiso  ? H
   H7         1.0     0.811696     0.662210     0.262220    Uiso  ? H
   H7         1.0     0.811696     0.662210     0.405078    Uiso  ? H
   H7         1.0     0.811696     0.662210     0.547935    Uiso  ? H
   H7         1.0     0.811696     0.662210     0.690792    Uiso  ? H
   H7         1.0     0.811696     0.662210     0.833649    Uiso  ? H
   H7         1.0     0.811696     0.662210     0.976506    Uiso  ? H
   H7         1.0     0.811696     0.912210     0.119363    Uiso  ? H
   H7         1.0     0.811696     0.912210     0.262220    Uiso  ? H
   H7         1.0     0.811696     0.912210     0.405078    Uiso  ? H
   H7         1.0     0.811696     0.912210     0.547935    Uiso  ? H
   H7         1.0     0.811696     0.912210     0.690792    Uiso  ? H
   H7         1.0     0.811696     0.912210     0.833649    Uiso  ? H
   H7         1.0     0.811696     0.912210     0.976506    Uiso  ? H
   H8         1.0     0.147885     0.219747     0.118802    Uiso  ? H
   H8         1.0     0.147885     0.219747     0.261660    Uiso  ? H
   H8         1.0     0.147885     0.219747     0.404517    Uiso  ? H
   H8         1.0     0.147885     0.219747     0.547374    Uiso  ? H
   H8         1.0     0.147885     0.219747     0.690231    Uiso  ? H
   H8         1.0     0.147885     0.219747     0.833088    Uiso  ? H
   H8         1.0     0.147885     0.219747     0.975945    Uiso  ? H
   H8         1.0     0.147885     0.469747     0.118802    Uiso  ? H
   H8         1.0     0.147885     0.469747     0.261660    Uiso  ? H
   H8         1.0     0.147885     0.469747     0.404517    Uiso  ? H
   H8         1.0     0.147885     0.469747     0.547374    Uiso  ? H
   H8         1.0     0.147885     0.469747     0.690231    Uiso  ? H
   H8         1.0     0.147885     0.469747     0.833088    Uiso  ? H
   H8         1.0     0.147885     0.469747     0.975945    Uiso  ? H
   H8         1.0     0.147885     0.719747     0.118802    Uiso  ? H
   H8         1.0     0.147885     0.719747     0.261660    Uiso  ? H
   H8         1.0     0.147885     0.719747     0.404517    Uiso  ? H
   H8         1.0     0.147885     0.719747     0.547374    Uiso  ? H
   H8         1.0     0.147885     0.719747     0.690231    Uiso  ? H
   H8         1.0     0.147885     0.719747     0.833088    Uiso  ? H
   H8         1.0     0.147885     0.719747     0.975945    Uiso  ? H
   H8         1.0     0.147885     0.969747     0.118802    Uiso  ? H
   H8         1.0     0.147885     0.969747     0.261660    Uiso  ? H
   H8         1.0     0.147885     0.969747     0.404517    Uiso  ? H
   H8         1.0     0.147885     0.969747     0.547374    Uiso  ? H
   H8         1.0     0.147885     0.969747     0.690231    Uiso  ? H
   H8         1.0     0.147885     0.969747     0.833088    Uiso  ? H
   H8         1.0     0.147885     0.969747     0.975945    Uiso  ? H
   H8         1.0     0.481218     0.219747     0.118802    Uiso  ? H
   H8         1.0     0.481218     0.219747     0.261660    Uiso  ? H
   H8         1.0     0.481218     0.219747     0.404517    Uiso  ? H
   H8         1.0     0.481218     0.219747     0.547374    Uiso  ? H
   H8         1.0     0.481218     0.219747     0.690231    Uiso  ? H
   H8         1.0     0.481218     0.219747     0.833088    Uiso  ? H
   H8         1.0     0.481218     0.219747     0.975945    Uiso  ? H
   H8         1.0     0.481218     0.469747     0.118802    Uiso  ? H
   H8         1.0     0.481218     0.469747     0.261660    Uiso  ? H
   H8         1.0     0.481218     0.469747     0.404517    Uiso  ? H
   H8         1.0     0.481218     0.469747     0.547374    Uiso  ? H
   H8         1.0     0.481218     0.469747     0.690231    Uiso  ? H
   H8         1.0     0.481218     0.469747     0.833088    Uiso  ? H
   H8         1.0     0.481218     0.469747     0.975945    Uiso  ? H
   H8         1.0     0.481218     0.719747     0.118802    Uiso  ? H
   H8         1.0     0.481218     0.719747     0.261660    Uiso  ? H
   H8         1.0     0.481218     0.719747     0.404517    Uiso  ? H
   H8         1.0     0.481218     0.719747     0.547374    Uiso  ? H
   H8         1.0     0.481218     0.719747     0.690231    Uiso  ? H
   H8         1.0     0.481218     0.719747     0.833088    Uiso  ? H
   H8         1.0     0.481218     0.719747     0.975945    Uiso  ? H
   H8         1.0     0.481218     0.969747     0.118802    Uiso  ? H
   H8         1.0     0.481218     0.969747     0.261660    Uiso  ? H
   H8         1.0     0.481218     0.969747     0.404517    Uiso  ? H
   H8         1.0     0.481218     0.969747     0.547374    Uiso  ? H
   H8         1.0     0.481218     0.969747     0.690231    Uiso  ? H
   H8         1.0     0.481218     0.969747     0.833088    Uiso  ? H
   H8         1.0     0.481218     0.969747     0.975945    Uiso  ? H
   H8         1.0     0.814551     0.219747     0.118802    Uiso  ? H
   H8         1.0     0.814551     0.219747     0.261660    Uiso  ? H
   H8         1.0     0.814551     0.219747     0.404517    Uiso  ? H
   H8         1.0     0.814551     0.219747     0.547374    Uiso  ? H
   H8         1.0     0.814551     0.219747     0.690231    Uiso  ? H
   H8         1.0     0.814551     0.219747     0.833088    Uiso  ? H
   H8         1.0     0.814551     0.219747     0.975945    Uiso  ? H
   H8         1.0     0.814551     0.469747     0.118802    Uiso  ? H
   H8         1.0     0.814551     0.469747     0.261660    Uiso  ? H
   H8         1.0     0.814551     0.469747     0.404517    Uiso  ? H
   H8         1.0     0.814551     0.469747     0.547374    Uiso  ? H
   H8         1.0     0.814551     0.469747     0.690231    Uiso  ? H
   H8         1.0     0.814551     0.469747     0.833088    Uiso  ? H
   H8         1.0     0.814551     0.469747     0.975945    Uiso  ? H
   H8         1.0     0.814551     0.719747     0.118802    Uiso  ? H
   H8         1.0     0.814551     0.719747     0.261660    Uiso  ? H
   H8         1.0     0.814551     0.719747     0.404517    Uiso  ? H
   H8         1.0     0.814551     0.719747     0.547374    Uiso  ? H
   H8         1.0     0.814551     0.719747     0.690231    Uiso  ? H
   H8         1.0     0.814551     0.719747     0.833088    Uiso  ? H
   H8         1.0     0.814551     0.719747     0.975945    Uiso  ? H
   H8         1.0     0.814551     0.969747     0.118802    Uiso  ? H
   H8         1.0     0.814551     0.969747     0.261660    Uiso  ? H
   H8         1.0     0.814551     0.969747     0.404517    Uiso  ? H
   H8         1.0     0.814551     0.969747     0.547374    Uiso  ? H
   H8         1.0     0.814551     0.969747     0.690231    Uiso  ? H
   H8         1.0     0.814551     0.969747     0.833088    Uiso  ? H
   H8         1.0     0.814551     0.969747     0.975945    Uiso  ? H
   H9         1.0     0.113413     0.063257     0.106210    Uiso  ? H
   H9         1.0     0.113413     0.063257     0.249067    Uiso  ? H
   H9         1.0     0.113413     0.063257     0.391924    Uiso  ? H
   H9         1.0     0.113413     0.063257     0.534781    Uiso  ? H
   H9         1.0     0.113413     0.063257     0.677638    Uiso  ? H
   H9         1.0     0.113413     0.063257     0.820495    Uiso  ? H
   H9         1.0     0.113413     0.063257     0.963353    Uiso  ? H
   H9         1.0     0.113413     0.313257     0.106210    Uiso  ? H
   H9         1.0     0.113413     0.313257     0.249067    Uiso  ? H
   H9         1.0     0.113413     0.313257     0.391924    Uiso  ? H
   H9         1.0     0.113413     0.313257     0.534781    Uiso  ? H
   H9         1.0     0.113413     0.313257     0.677638    Uiso  ? H
   H9         1.0     0.113413     0.313257     0.820495    Uiso  ? H
   H9         1.0     0.113413     0.313257     0.963353    Uiso  ? H
   H9         1.0     0.113413     0.563257     0.106210    Uiso  ? H
   H9         1.0     0.113413     0.563257     0.249067    Uiso  ? H
   H9         1.0     0.113413     0.563257     0.391924    Uiso  ? H
   H9         1.0     0.113413     0.563257     0.534781    Uiso  ? H
   H9         1.0     0.113413     0.563257     0.677638    Uiso  ? H
   H9         1.0     0.113413     0.563257     0.820495    Uiso  ? H
   H9         1.0     0.113413     0.563257     0.963353    Uiso  ? H
   H9         1.0     0.113413     0.813257     0.106210    Uiso  ? H
   H9         1.0     0.113413     0.813257     0.249067    Uiso  ? H
   H9         1.0     0.113413     0.813257     0.391924    Uiso  ? H
   H9         1.0     0.113413     0.813257     0.534781    Uiso  ? H
   H9         1.0     0.113413     0.813257     0.677638    Uiso  ? H
   H9         1.0     0.113413     0.813257     0.820495    Uiso  ? H
   H9         1.0     0.113413     0.813257     0.963353    Uiso  ? H
   H9         1.0     0.446747     0.063257     0.106210    Uiso  ? H
   H9         1.0     0.446747     0.063257     0.249067    Uiso  ? H
   H9         1.0     0.446747     0.063257     0.391924    Uiso  ? H
   H9         1.0     0.446747     0.063257     0.534781    Uiso  ? H
   H9         1.0     0.446747     0.063257     0.677638    Uiso  ? H
   H9         1.0     0.446747     0.063257     0.820495    Uiso  ? H
   H9         1.0     0.446747     0.063257     0.963353    Uiso  ? H
   H9         1.0     0.446747     0.313257     0.106210    Uiso  ? H
   H9         1.0     0.446747     0.313257     0.249067    Uiso  ? H
   H9         1.0     0.446747     0.313257     0.391924    Uiso  ? H
   H9         1.0     0.446747     0.313257     0.534781    Uiso  ? H
   H9         1.0     0.446747     0.313257     0.677638    Uiso  ? H
   H9         1.0     0.446747     0.313257     0.820495    Uiso  ? H
   H9         1.0     0.446747     0.313257     0.963353    Uiso  ? H
   H9         1.0     0.446747     0.563257     0.106210    Uiso  ? H
   H9         1.0     0.446747     0.563257     0.249067    Uiso  ? H
   H9         1.0     0.446747     0.563257     0.391924    Uiso  ? H
   H9         1.0     0.446747     0.563257     0.534781    Uiso  ? H
   H9         1.0     0.446747     0.563257     0.677638    Uiso  ? H
   H9         1.0     0.446747     0.563257     0.820495    Uiso  ? H
   H9         1.0     0.446747     0.563257     0.963353    Uiso  ? H
   H9         1.0     0.446747     0.813257     0.106210    Uiso  ? H
   H9         1.0     0.446747     0.813257     0.249067    Uiso  ? H
   H9         1.0     0.446747     0.813257     0.391924    Uiso  ? H
   H9         1.0     0.446747     0.813257     0.534781    Uiso  ? H
   H9         1.0     0.446747     0.813257     0.677638    Uiso  ? H
   H9         1.0     0.446747     0.813257     0.820495    Uiso  ? H
   H9         1.0     0.446747     0.813257     0.963353    Uiso  ? H
   H9         1.0     0.780080     0.063257     0.106210    Uiso  ? H
   H9         1.0     0.780080     0.063257     0.249067    Uiso  ? H
   H9         1.0     0.780080     0.063257     0.391924    Uiso  ? H
   H9         1.0     0.780080     0.063257     0.534781    Uiso  ? H
   H9         1.0     0.780080     0.063257     0.677638    Uiso  ? H
   H9         1.0     0.780080     0.063257     0.820495    Uiso  ? H
   H9         1.0     0.780080     0.063257     0.963353    Uiso  ? H
   H9         1.0     0.780080     0.313257     0.106210    Uiso  ? H
   H9         1.0     0.780080     0.313257     0.249067    Uiso  ? H
   H9         1.0     0.780080     0.313257     0.391924    Uiso  ? H
   H9         1.0     0.780080     0.313257     0.534781    Uiso  ? H
   H9         1.0     0.780080     0.313257     0.677638    Uiso  ? H
   H9         1.0     0.780080     0.313257     0.820495    Uiso  ? H
   H9         1.0     0.780080     0.313257     0.963353    Uiso  ? H
   H9         1.0     0.780080     0.563257     0.106210    Uiso  ? H
   H9         1.0     0.780080     0.563257     0.249067    Uiso  ? H
   H9         1.0     0.780080     0.563257     0.391924    Uiso  ? H
   H9         1.0     0.780080     0.563257     0.534781    Uiso  ? H
   H9         1.0     0.780080     0.563257     0.677638    Uiso  ? H
   H9         1.0     0.780080     0.563257     0.820495    Uiso  ? H
   H9         1.0     0.780080     0.563257     0.963353    Uiso  ? H
   H9         1.0     0.780080     0.813257     0.106210    Uiso  ? H
   H9         1.0     0.780080     0.813257     0.249067    Uiso  ? H
   H9         1.0     0.780080     0.813257     0.391924    Uiso  ? H
   H9         1.0     0.780080     0.813257     0.534781    Uiso  ? H
   H9         1.0     0.780080     0.813257     0.677638    Uiso  ? H
   H9         1.0     0.780080     0.813257     0.820495    Uiso  ? H
   H9         1.0     0.780080     0.813257     0.963353    Uiso  ? H
   H10        1.0     0.280058     0.186972     0.105933    Uiso  ? H
   H10        1.0     0.280058     0.186972     0.248790    Uiso  ? H
   H10        1.0     0.280058     0.186972     0.391647    Uiso  ? H
   H10        1.0     0.280058     0.186972     0.534505    Uiso  ? H
   H10        1.0     0.280058     0.186972     0.677362    Uiso  ? H
   H10        1.0     0.280058     0.186972     0.820219    Uiso  ? H
   H10        1.0     0.280058     0.186972     0.963076    Uiso  ? H
   H10        1.0     0.280058     0.436972     0.105933    Uiso  ? H
   H10        1.0     0.280058     0.436972     0.248790    Uiso  ? H
   H10        1.0     0.280058     0.436972     0.391647    Uiso  ? H
   H10        1.0     0.280058     0.436972     0.534505    Uiso  ? H
   H10        1.0     0.280058     0.436972     0.677362    Uiso  ? H
   H10        1.0     0.280058     0.436972     0.820219    Uiso  ? H
   H10        1.0     0.280058     0.436972     0.963076    Uiso  ? H
   H10        1.0     0.280058     0.686972     0.105933    Uiso  ? H
   H10        1.0     0.280058     0.686972     0.248790    Uiso  ? H
   H10        1.0     0.280058     0.686972     0.391647    Uiso  ? H
   H10        1.0     0.280058     0.686972     0.534505    Uiso  ? H
   H10        1.0     0.280058     0.686972     0.677362    Uiso  ? H
   H10        1.0     0.280058     0.686972     0.820219    Uiso  ? H
   H10        1.0     0.280058     0.686972     0.963076    Uiso  ? H
   H10        1.0     0.280058     0.936972     0.105933    Uiso  ? H
   H10        1.0     0.280058     0.936972     0.248790    Uiso  ? H
   H10        1.0     0.280058     0.936972     0.391647    Uiso  ? H
   H10        1.0     0.280058     0.936972     0.534505    Uiso  ? H
   H10        1.0     0.280058     0.936972     0.677362    Uiso  ? H
   H10        1.0     0.280058     0.936972     0.820219    Uiso  ? H
   H10        1.0     0.280058     0.936972     0.963076    Uiso  ? H
   H10        1.0     0.613391     0.186972     0.105933    Uiso  ? H
   H10        1.0     0.613391     0.186972     0.248790    Uiso  ? H
   H10        1.0     0.613391     0.186972     0.391647    Uiso  ? H
   H10        1.0     0.613391     0.186972     0.534505    Uiso  ? H
   H10        1.0     0.613391     0.186972     0.677362    Uiso  ? H
   H10        1.0     0.613391     0.186972     0.820219    Uiso  ? H
   H10        1.0     0.613391     0.186972     0.963076    Uiso  ? H
   H10        1.0     0.613391     0.436972     0.105933    Uiso  ? H
   H10        1.0     0.613391     0.436972     0.248790    Uiso  ? H
   H10        1.0     0.613391     0.436972     0.391647    Uiso  ? H
   H10        1.0     0.613391     0.436972     0.534505    Uiso  ? H
   H10        1.0     0.613391     0.436972     0.677362    Uiso  ? H
   H10        1.0     0.613391     0.436972     0.820219    Uiso  ? H
   H10        1.0     0.613391     0.436972     0.963076    Uiso  ? H
   H10        1.0     0.613391     0.686972     0.105933    Uiso  ? H
   H10        1.0     0.613391     0.686972     0.248790    Uiso  ? H
   H10        1.0     0.613391     0.686972     0.391647    Uiso  ? H
   H10        1.0     0.613391     0.686972     0.534505    Uiso  ? H
   H10        1.0     0.613391     0.686972     0.677362    Uiso  ? H
   H10        1.0     0.613391     0.686972     0.820219    Uiso  ? H
   H10        1.0     0.613391     0.686972     0.963076    Uiso  ? H
   H10        1.0     0.613391     0.936972     0.105933    Uiso  ? H
   H10        1.0     0.613391     0.936972     0.248790    Uiso  ? H
   H10        1.0     0.613391     0.936972     0.391647    Uiso  ? H
   H10        1.0     0.613391     0.936972     0.534505    Uiso  ? H
   H10        1.0     0.613391     0.936972     0.677362    Uiso  ? H
   H10        1.0     0.613391     0.936972     0.820219    Uiso  ? H
   H10        1.0     0.613391     0.936972     0.963076    Uiso  ? H
   H10        1.0     0.946725     0.186972     0.105933    Uiso  ? H
   H10        1.0     0.946725     0.186972     0.248790    Uiso  ? H
   H10        1.0     0.946725     0.186972     0.391647    Uiso  ? H
   H10        1.0     0.946725     0.186972     0.534505    Uiso  ? H
   H10        1.0     0.946725     0.186972     0.677362    Uiso  ? H
   H10        1.0     0.946725     0.186972     0.820219    Uiso  ? H
   H10        1.0     0.946725     0.186972     0.963076    Uiso  ? H
   H10        1.0     0.946725     0.436972     0.105933    Uiso  ? H
   H10        1.0     0.946725     0.436972     0.248790    Uiso  ? H
   H10        1.0     0.946725     0.436972     0.391647    Uiso  ? H
   H10        1.0     0.946725     0.436972     0.534505    Uiso  ? H
   H10        1.0     0.946725     0.436972     0.677362    Uiso  ? H
   H10        1.0     0.946725     0.436972     0.820219    Uiso  ? H
   H10        1.0     0.946725     0.436972     0.963076    Uiso  ? H
   H10        1.0     0.946725     0.686972     0.105933    Uiso  ? H
   H10        1.0     0.946725     0.686972     0.248790    Uiso  ? H
   H10        1.0     0.946725     0.686972     0.391647    Uiso  ? H
   H10        1.0     0.946725     0.686972     0.534505    Uiso  ? H
   H10        1.0     0.946725     0.686972     0.677362    Uiso  ? H
   H10        1.0     0.946725     0.686972     0.820219    Uiso  ? H
   H10        1.0     0.946725     0.686972     0.963076    Uiso  ? H
   H10        1.0     0.946725     0.936972     0.105933    Uiso  ? H
   H10        1.0     0.946725     0.936972     0.248790    Uiso  ? H
   H10        1.0     0.946725     0.936972     0.391647    Uiso  ? H
   H10        1.0     0.946725     0.936972     0.534505    Uiso  ? H
   H10        1.0     0.946725     0.936972     0.677362    Uiso  ? H
   H10        1.0     0.946725     0.936972     0.820219    Uiso  ? H
   H10        1.0     0.946725     0.936972     0.963076    Uiso  ? H
   H11        1.0     0.317818     0.094574     0.092437    Uiso  ? H
   H11        1.0     0.317818     0.094574     0.235294    Uiso  ? H
   H11        1.0     0.317818     0.094574     0.378151    Uiso  ? H
   H11        1.0     0.317818     0.094574     0.521008    Uiso  ? H
   H11        1.0     0.317818     0.094574     0.663865    Uiso  ? H
   H11        1.0     0.317818     0.094574     0.806723    Uiso  ? H
   H11        1.0     0.317818     0.094574     0.949580    Uiso  ? H
   H11        1.0     0.317818     0.344574     0.092437    Uiso  ? H
   H11        1.0     0.317818     0.344574     0.235294    Uiso  ? H
   H11        1.0     0.317818     0.344574     0.378151    Uiso  ? H
   H11        1.0     0.317818     0.344574     0.521008    Uiso  ? H
   H11        1.0     0.317818     0.344574     0.663865    Uiso  ? H
   H11        1.0     0.317818     0.344574     0.806723    Uiso  ? H
   H11        1.0     0.317818     0.344574     0.949580    Uiso  ? H
   H11        1.0     0.317818     0.594574     0.092437    Uiso  ? H
   H11        1.0     0.317818     0.594574     0.235294    Uiso  ? H
   H11        1.0     0.317818     0.594574     0.378151    Uiso  ? H
   H11        1.0     0.317818     0.594574     0.521008    Uiso  ? H
   H11        1.0     0.317818     0.594574     0.663865    Uiso  ? H
   H11        1.0     0.317818     0.594574     0.806723    Uiso  ? H
   H11        1.0     0.317818     0.594574     0.949580    Uiso  ? H
   H11        1.0     0.317818     0.844574     0.092437    Uiso  ? H
   H11        1.0     0.317818     0.844574     0.235294    Uiso  ? H
   H11        1.0     0.317818     0.844574     0.378151    Uiso  ? H
   H11        1.0     0.317818     0.844574     0.521008    Uiso  ? H
   H11        1.0     0.317818     0.844574     0.663865    Uiso  ? H
   H11        1.0     0.317818     0.844574     0.806723    Uiso  ? H
   H11        1.0     0.317818     0.844574     0.949580    Uiso  ? H
   H11        1.0     0.651152     0.094574     0.092437    Uiso  ? H
   H11        1.0     0.651152     0.094574     0.235294    Uiso  ? H
   H11        1.0     0.651152     0.094574     0.378151    Uiso  ? H
   H11        1.0     0.651152     0.094574     0.521008    Uiso  ? H
   H11        1.0     0.651152     0.094574     0.663865    Uiso  ? H
   H11        1.0     0.651152     0.094574     0.806723    Uiso  ? H
   H11        1.0     0.651152     0.094574     0.949580    Uiso  ? H
   H11        1.0     0.651152     0.344574     0.092437    Uiso  ? H
   H11        1.0     0.651152     0.344574     0.235294    Uiso  ? H
   H11        1.0     0.651152     0.344574     0.378151    Uiso  ? H
   H11        1.0     0.651152     0.344574     0.521008    Uiso  ? H
   H11        1.0     0.651152     0.344574     0.663865    Uiso  ? H
   H11        1.0     0.651152     0.344574     0.806723    Uiso  ? H
   H11        1.0     0.651152     0.344574     0.949580    Uiso  ? H
   H11        1.0     0.651152     0.594574     0.092437    Uiso  ? H
   H11        1.0     0.651152     0.594574     0.235294    Uiso  ? H
   H11        1.0     0.651152     0.594574     0.378151    Uiso  ? H
   H11        1.0     0.651152     0.594574     0.521008    Uiso  ? H
   H11        1.0     0.651152     0.594574     0.663865    Uiso  ? H
   H11        1.0     0.651152     0.594574     0.806723    Uiso  ? H
   H11        1.0     0.651152     0.594574     0.949580    Uiso  ? H
   H11        1.0     0.651152     0.844574     0.092437    Uiso  ? H
   H11        1.0     0.651152     0.844574     0.235294    Uiso  ? H
   H11        1.0     0.651152     0.844574     0.378151    Uiso  ? H
   H11        1.0     0.651152     0.844574     0.521008    Uiso  ? H
   H11        1.0     0.651152     0.844574     0.663865    Uiso  ? H
   H11        1.0     0.651152     0.844574     0.806723    Uiso  ? H
   H11        1.0     0.651152     0.844574     0.949580    Uiso  ? H
   H11        1.0     0.984485     0.094574     0.092437    Uiso  ? H
   H11        1.0     0.984485     0.094574     0.235294    Uiso  ? H
   H11        1.0     0.984485     0.094574     0.378151    Uiso  ? H
   H11        1.0     0.984485     0.094574     0.521008    Uiso  ? H
   H11        1.0     0.984485     0.094574     0.663865    Uiso  ? H
   H11        1.0     0.984485     0.094574     0.806723    Uiso  ? H
   H11        1.0     0.984485     0.094574     0.949580    Uiso  ? H
   H11        1.0     0.984485     0.344574     0.092437    Uiso  ? H
   H11        1.0     0.984485     0.344574     0.235294    Uiso  ? H
   H11        1.0     0.984485     0.344574     0.378151    Uiso  ? H
   H11        1.0     0.984485     0.344574     0.521008    Uiso  ? H
   H11        1.0     0.984485     0.344574     0.663865    Uiso  ? H
   H11        1.0     0.984485     0.344574     0.806723    Uiso  ? H
   H11        1.0     0.984485     0.344574     0.949580    Uiso  ? H
   H11        1.0     0.984485     0.594574     0.092437    Uiso  ? H
   H11        1.0     0.984485     0.594574     0.235294    Uiso  ? H
   H11        1.0     0.984485     0.594574     0.378151    Uiso  ? H
   H11        1.0     0.984485     0.594574     0.521008    Uiso  ? H
   H11        1.0     0.984485     0.594574     0.663865    Uiso  ? H
   H11        1.0     0.984485     0.594574     0.806723    Uiso  ? H
   H11        1.0     0.984485     0.594574     0.949580    Uiso  ? H
   H11        1.0     0.984485     0.844574     0.092437    Uiso  ? H
   H11        1.0     0.984485     0.844574     0.235294    Uiso  ? H
   H11        1.0     0.984485     0.844574     0.378151    Uiso  ? H
   H11        1.0     0.984485     0.844574     0.521008    Uiso  ? H
   H11        1.0     0.984485     0.844574     0.663865    Uiso  ? H
   H11        1.0     0.984485     0.844574     0.806723    Uiso  ? H
   H11        1.0     0.984485     0.844574     0.949580    Uiso  ? H
   H12        1.0     0.311914     0.034979     0.092332    Uiso  ? H
   H12        1.0     0.311914     0.034979     0.235189    Uiso  ? H
   H12        1.0     0.311914     0.034979     0.378047    Uiso  ? H
   H12        1.0     0.311914     0.034979     0.520904    Uiso  ? H
   H12        1.0     0.311914     0.034979     0.663761    Uiso  ? H
   H12        1.0     0.311914     0.034979     0.806618    Uiso  ? H
   H12        1.0     0.311914     0.034979     0.949475    Uiso  ? H
   H12        1.0     0.311914     0.284979     0.092332    Uiso  ? H
   H12        1.0     0.311914     0.284979     0.235189    Uiso  ? H
   H12        1.0     0.311914     0.284979     0.378047    Uiso  ? H
   H12        1.0     0.311914     0.284979     0.520904    Uiso  ? H
   H12        1.0     0.311914     0.284979     0.663761    Uiso  ? H
   H12        1.0     0.311914     0.284979     0.806618    Uiso  ? H
   H12        1.0     0.311914     0.284979     0.949475    Uiso  ? H
   H12        1.0     0.311914     0.534979     0.092332    Uiso  ? H
   H12        1.0     0.311914     0.534979     0.235189    Uiso  ? H
   H12        1.0     0.311914     0.534979     0.378047    Uiso  ? H
   H12        1.0     0.311914     0.534979     0.520904    Uiso  ? H
   H12        1.0     0.311914     0.534979     0.663761    Uiso  ? H
   H12        1.0     0.311914     0.534979     0.806618    Uiso  ? H
   H12        1.0     0.311914     0.534979     0.949475    Uiso  ? H
   H12        1.0     0.311914     0.784979     0.092332    Uiso  ? H
   H12        1.0     0.311914     0.784979     0.235189    Uiso  ? H
   H12        1.0     0.311914     0.784979     0.378047    Uiso  ? H
   H12        1.0     0.311914     0.784979     0.520904    Uiso  ? H
   H12        1.0     0.311914     0.784979     0.663761    Uiso  ? H
   H12        1.0     0.311914     0.784979     0.806618    Uiso  ? H
   H12        1.0     0.311914     0.784979     0.949475    Uiso  ? H
   H12        1.0     0.645248     0.034979     0.092332    Uiso  ? H
   H12        1.0     0.645248     0.034979     0.235189    Uiso  ? H
   H12        1.0     0.645248     0.034979     0.378047    Uiso  ? H
   H12        1.0     0.645248     0.034979     0.520904    Uiso  ? H
   H12        1.0     0.645248     0.034979     0.663761    Uiso  ? H
   H12        1.0     0.645248     0.034979     0.806618    Uiso  ? H
   H12        1.0     0.645248     0.034979     0.949475    Uiso  ? H
   H12        1.0     0.645248     0.284979     0.092332    Uiso  ? H
   H12        1.0     0.645248     0.284979     0.235189    Uiso  ? H
   H12        1.0     0.645248     0.284979     0.378047    Uiso  ? H
   H12        1.0     0.645248     0.284979     0.520904    Uiso  ? H
   H12        1.0     0.645248     0.284979     0.663761    Uiso  ? H
   H12        1.0     0.645248     0.284979     0.806618    Uiso  ? H
   H12        1.0     0.645248     0.284979     0.949475    Uiso  ? H
   H12        1.0     0.645248     0.534979     0.092332    Uiso  ? H
   H12        1.0     0.645248     0.534979     0.235189    Uiso  ? H
   H12        1.0     0.645248     0.534979     0.378047    Uiso  ? H
   H12        1.0     0.645248     0.534979     0.520904    Uiso  ? H
   H12        1.0     0.645248     0.534979     0.663761    Uiso  ? H
   H12        1.0     0.645248     0.534979     0.806618    Uiso  ? H
   H12        1.0     0.645248     0.534979     0.949475    Uiso  ? H
   H12        1.0     0.645248     0.784979     0.092332    Uiso  ? H
   H12        1.0     0.645248     0.784979     0.235189    Uiso  ? H
   H12        1.0     0.645248     0.784979     0.378047    Uiso  ? H
   H12        1.0     0.645248     0.784979     0.520904    Uiso  ? H
   H12        1.0     0.645248     0.784979     0.663761    Uiso  ? H
   H12        1.0     0.645248     0.784979     0.806618    Uiso  ? H
   H12        1.0     0.645248     0.784979     0.949475    Uiso  ? H
   H12        1.0     0.978581     0.034979     0.092332    Uiso  ? H
   H12        1.0     0.978581     0.034979     0.235189    Uiso  ? H
   H12        1.0     0.978581     0.034979     0.378047    Uiso  ? H
   H12        1.0     0.978581     0.034979     0.520904    Uiso  ? H
   H12        1.0     0.978581     0.034979     0.663761    Uiso  ? H
   H12        1.0     0.978581     0.034979     0.806618    Uiso  ? H
   H12        1.0     0.978581     0.034979     0.949475    Uiso  ? H
   H12        1.0     0.978581     0.284979     0.092332    Uiso  ? H
   H12        1.0     0.978581     0.284979     0.235189    Uiso  ? H
   H12        1.0     0.978581     0.284979     0.378047    Uiso  ? H
   H12        1.0     0.978581     0.284979     0.520904    Uiso  ? H
   H12        1.0     0.978581     0.284979     0.663761    Uiso  ? H
   H12        1.0     0.978581     0.284979     0.806618    Uiso  ? H
   H12        1.0     0.978581     0.284979     0.949475    Uiso  ? H
   H12        1.0     0.978581     0.534979     0.092332    Uiso  ? H
   H12        1.0     0.978581     0.534979     0.235189    Uiso  ? H
   H12        1.0     0.978581     0.534979     0.378047    Uiso  ? H
   H12        1.0     0.978581     0.534979     0.520904    Uiso  ? H
   H12        1.0     0.978581     0.534979     0.663761    Uiso  ? H
   H12        1.0     0.978581     0.534979     0.806618    Uiso  ? H
   H12        1.0     0.978581     0.534979     0.949475    Uiso  ? H
   H12        1.0     0.978581     0.784979     0.092332    Uiso  ? H
   H12        1.0     0.978581     0.784979     0.235189    Uiso  ? H
   H12        1.0     0.978581     0.784979     0.378047    Uiso  ? H
   H12        1.0     0.978581     0.784979     0.520904    Uiso  ? H
   H12        1.0     0.978581     0.784979     0.663761    Uiso  ? H
   H12        1.0     0.978581     0.784979     0.806618    Uiso  ? H
   H12        1.0     0.978581     0.784979     0.949475    Uiso  ? H
   H13        1.0     0.168098     0.031545     0.081479    Uiso  ? H
   H13        1.0     0.168098     0.031545     0.224336    Uiso  ? H
   H13        1.0     0.168098     0.031545     0.367193    Uiso  ? H
   H13        1.0     0.168098     0.031545     0.510050    Uiso  ? H
   H13        1.0     0.168098     0.031545     0.652907    Uiso  ? H
   H13        1.0     0.168098     0.031545     0.795765    Uiso  ? H
   H13        1.0     0.168098     0.031545     0.938622    Uiso  ? H
   H13        1.0     0.168098     0.281545     0.081479    Uiso  ? H
   H13        1.0     0.168098     0.281545     0.224336    Uiso  ? H
   H13        1.0     0.168098     0.281545     0.367193    Uiso  ? H
   H13        1.0     0.168098     0.281545     0.510050    Uiso  ? H
   H13        1.0     0.168098     0.281545     0.652907    Uiso  ? H
   H13        1.0     0.168098     0.281545     0.795765    Uiso  ? H
   H13        1.0     0.168098     0.281545     0.938622    Uiso  ? H
   H13        1.0     0.168098     0.531545     0.081479    Uiso  ? H
   H13        1.0     0.168098     0.531545     0.224336    Uiso  ? H
   H13        1.0     0.168098     0.531545     0.367193    Uiso  ? H
   H13        1.0     0.168098     0.531545     0.510050    Uiso  ? H
   H13        1.0     0.168098     0.531545     0.652907    Uiso  ? H
   H13        1.0     0.168098     0.531545     0.795765    Uiso  ? H
   H13        1.0     0.168098     0.531545     0.938622    Uiso  ? H
   H13        1.0     0.168098     0.781545     0.081479    Uiso  ? H
   H13        1.0     0.168098     0.781545     0.224336    Uiso  ? H
   H13        1.0     0.168098     0.781545     0.367193    Uiso  ? H
   H13        1.0     0.168098     0.781545     0.510050    Uiso  ? H
   H13        1.0     0.168098     0.781545     0.652907    Uiso  ? H
   H13        1.0     0.168098     0.781545     0.795765    Uiso  ? H
   H13        1.0     0.168098     0.781545     0.938622    Uiso  ? H
   H13        1.0     0.501431     0.031545     0.081479    Uiso  ? H
   H13        1.0     0.501431     0.031545     0.224336    Uiso  ? H
   H13        1.0     0.501431     0.031545     0.367193    Uiso  ? H
   H13        1.0     0.501431     0.031545     0.510050    Uiso  ? H
   H13        1.0     0.501431     0.031545     0.652907    Uiso  ? H
   H13        1.0     0.501431     0.031545     0.795765    Uiso  ? H
   H13        1.0     0.501431     0.031545     0.938622    Uiso  ? H
   H13        1.0     0.501431     0.281545     0.081479    Uiso  ? H
   H13        1.0     0.501431     0.281545     0.224336    Uiso  ? H
   H13        1.0     0.501431     0.281545     0.367193    Uiso  ? H
   H13        1.0     0.501431     0.281545     0.510050    Uiso  ? H
   H13        1.0     0.501431     0.281545     0.652907    Uiso  ? H
   H13        1.0     0.501431     0.281545     0.795765    Uiso  ? H
   H13        1.0     0.501431     0.281545     0.938622    Uiso  ? H
   H13        1.0     0.501431     0.531545     0.081479    Uiso  ? H
   H13        1.0     0.501431     0.531545     0.224336    Uiso  ? H
   H13        1.0     0.501431     0.531545     0.367193    Uiso  ? H
   H13        1.0     0.501431     0.531545     0.510050    Uiso  ? H
   H13        1.0     0.501431     0.531545     0.652907    Uiso  ? H
   H13        1.0     0.501431     0.531545     0.795765    Uiso  ? H
   H13        1.0     0.501431     0.531545     0.938622    Uiso  ? H
   H13        1.0     0.501431     0.781545     0.081479    Uiso  ? H
   H13        1.0     0.501431     0.781545     0.224336    Uiso  ? H
   H13        1.0     0.501431     0.781545     0.367193    Uiso  ? H
   H13        1.0     0.501431     0.781545     0.510050    Uiso  ? H
   H13        1.0     0.501431     0.781545     0.652907    Uiso  ? H
   H13        1.0     0.501431     0.781545     0.795765    Uiso  ? H
   H13        1.0     0.501431     0.781545     0.938622    Uiso  ? H
   H13        1.0     0.834764     0.031545     0.081479    Uiso  ? H
   H13        1.0     0.834764     0.031545     0.224336    Uiso  ? H
   H13        1.0     0.834764     0.031545     0.367193    Uiso  ? H
   H13        1.0     0.834764     0.031545     0.510050    Uiso  ? H
   H13        1.0     0.834764     0.031545     0.652907    Uiso  ? H
   H13        1.0     0.834764     0.031545     0.795765    Uiso  ? H
   H13        1.0     0.834764     0.031545     0.938622    Uiso  ? H
   H13        1.0     0.834764     0.281545     0.081479    Uiso  ? H
   H13        1.0     0.834764     0.281545     0.224336    Uiso  ? H
   H13        1.0     0.834764     0.281545     0.367193    Uiso  ? H
   H13        1.0     0.834764     0.281545     0.510050    Uiso  ? H
   H13        1.0     0.834764     0.281545     0.652907    Uiso  ? H
   H13        1.0     0.834764     0.281545     0.795765    Uiso  ? H
   H13        1.0     0.834764     0.281545     0.938622    Uiso  ? H
   H13        1.0     0.834764     0.531545     0.081479    Uiso  ? H
   H13        1.0     0.834764     0.531545     0.224336    Uiso  ? H
   H13        1.0     0.834764     0.531545     0.367193    Uiso  ? H
   H13        1.0     0.834764     0.531545     0.510050    Uiso  ? H
   H13        1.0     0.834764     0.531545     0.652907    Uiso  ? H
   H13        1.0     0.834764     0.531545     0.795765    Uiso  ? H
   H13        1.0     0.834764     0.531545     0.938622    Uiso  ? H
   H13        1.0     0.834764     0.781545     0.081479    Uiso  ? H
   H13        1.0     0.834764     0.781545     0.224336    Uiso  ? H
   H13        1.0     0.834764     0.781545     0.367193    Uiso  ? H
   H13        1.0     0.834764     0.781545     0.510050    Uiso  ? H
   H13        1.0     0.834764     0.781545     0.652907    Uiso  ? H
   H13        1.0     0.834764     0.781545     0.795765    Uiso  ? H
   H13        1.0     0.834764     0.781545     0.938622    Uiso  ? H
   H14        1.0     0.285583     0.998483     0.085636    Uiso  ? H
   H14        1.0     0.285583     0.998483     0.228493    Uiso  ? H
   H14        1.0     0.285583     0.998483     0.371351    Uiso  ? H
   H14        1.0     0.285583     0.998483     0.514208    Uiso  ? H
   H14        1.0     0.285583     0.998483     0.657065    Uiso  ? H
   H14        1.0     0.285583     0.998483     0.799922    Uiso  ? H
   H14        1.0     0.285583     0.998483     0.942779    Uiso  ? H
   H14        1.0     0.285583     0.248483     0.085636    Uiso  ? H
   H14        1.0     0.285583     0.248483     0.228493    Uiso  ? H
   H14        1.0     0.285583     0.248483     0.371351    Uiso  ? H
   H14        1.0     0.285583     0.248483     0.514208    Uiso  ? H
   H14        1.0     0.285583     0.248483     0.657065    Uiso  ? H
   H14        1.0     0.285583     0.248483     0.799922    Uiso  ? H
   H14        1.0     0.285583     0.248483     0.942779    Uiso  ? H
   H14        1.0     0.285583     0.498483     0.085636    Uiso  ? H
   H14        1.0     0.285583     0.498483     0.228493    Uiso  ? H
   H14        1.0     0.285583     0.498483     0.371351    Uiso  ? H
   H14        1.0     0.285583     0.498483     0.514208    Uiso  ? H
   H14        1.0     0.285583     0.498483     0.657065    Uiso  ? H
   H14        1.0     0.285583     0.498483     0.799922    Uiso  ? H
   H14        1.0     0.285583     0.498483     0.942779    Uiso  ? H
   H14        1.0     0.285583     0.748483     0.085636    Uiso  ? H
   H14        1.0     0.285583     0.748483     0.228493    Uiso  ? H
   H14        1.0     0.285583     0.748483     0.371351    Uiso  ? H
   H14        1.0     0.285583     0.748483     0.514208    Uiso  ? H
   H14        1.0     0.285583     0.748483     0.657065    Uiso  ? H
   H14        1.0     0.285583     0.748483     0.799922    Uiso  ? H
   H14        1.0     0.285583     0.748483     0.942779    Uiso  ? H
   H14        1.0     0.618917     0.998483     0.085636    Uiso  ? H
   H14        1.0     0.618917     0.998483     0.228493    Uiso  ? H
   H14        1.0     0.618917     0.998483     0.371351    Uiso  ? H
   H14        1.0     0.618917     0.998483     0.514208    Uiso  ? H
   H14        1.0     0.618917     0.998483     0.657065    Uiso  ? H
   H14        1.0     0.618917     0.998483     0.799922    Uiso  ? H
   H14        1.0     0.618917     0.998483     0.942779    Uiso  ? H
   H14        1.0     0.618917     0.248483     0.085636    Uiso  ? H
   H14        1.0     0.618917     0.248483     0.228493    Uiso  ? H
   H14        1.0     0.618917     0.248483     0.371351    Uiso  ? H
   H14        1.0     0.618917     0.248483     0.514208    Uiso  ? H
   H14        1.0     0.618917     0.248483     0.657065    Uiso  ? H
   H14        1.0     0.618917     0.248483     0.799922    Uiso  ? H
   H14        1.0     0.618917     0.248483     0.942779    Uiso  ? H
   H14        1.0     0.618917     0.498483     0.085636    Uiso  ? H
   H14        1.0     0.618917     0.498483     0.228493    Uiso  ? H
   H14        1.0     0.618917     0.498483     0.371351    Uiso  ? H
   H14        1.0     0.618917     0.498483     0.514208    Uiso  ? H
   H14        1.0     0.618917     0.498483     0.657065    Uiso  ? H
   H14        1.0     0.618917     0.498483     0.799922    Uiso  ? H
   H14        1.0     0.618917     0.498483     0.942779    Uiso  ? H
   H14        1.0     0.618917     0.748483     0.085636    Uiso  ? H
   H14        1.0     0.618917     0.748483     0.228493    Uiso  ? H
   H14        1.0     0.618917     0.748483     0.371351    Uiso  ? H
   H14        1.0     0.618917     0.748483     0.514208    Uiso  ? H
   H14        1.0     0.618917     0.748483     0.657065    Uiso  ? H
   H14        1.0     0.618917     0.748483     0.799922    Uiso  ? H
   H14        1.0     0.618917     0.748483     0.942779    Uiso  ? H
   H14        1.0     0.952250     0.998483     0.085636    Uiso  ? H
   H14        1.0     0.952250     0.998483     0.228493    Uiso  ? H
   H14        1.0     0.952250     0.998483     0.371351    Uiso  ? H
   H14        1.0     0.952250     0.998483     0.514208    Uiso  ? H
   H14        1.0     0.952250     0.998483     0.657065    Uiso  ? H
   H14        1.0     0.952250     0.998483     0.799922    Uiso  ? H
   H14        1.0     0.952250     0.998483     0.942779    Uiso  ? H
   H14        1.0     0.952250     0.248483     0.085636    Uiso  ? H
   H14        1.0     0.952250     0.248483     0.228493    Uiso  ? H
   H14        1.0     0.952250     0.248483     0.371351    Uiso  ? H
   H14        1.0     0.952250     0.248483     0.514208    Uiso  ? H
   H14        1.0     0.952250     0.248483     0.657065    Uiso  ? H
   H14        1.0     0.952250     0.248483     0.799922    Uiso  ? H
   H14        1.0     0.952250     0.248483     0.942779    Uiso  ? H
   H14        1.0     0.952250     0.498483     0.085636    Uiso  ? H
   H14        1.0     0.952250     0.498483     0.228493    Uiso  ? H
   H14        1.0     0.952250     0.498483     0.371351    Uiso  ? H
   H14        1.0     0.952250     0.498483     0.514208    Uiso  ? H
   H14        1.0     0.952250     0.498483     0.657065    Uiso  ? H
   H14        1.0     0.952250     0.498483     0.799922    Uiso  ? H
   H14        1.0     0.952250     0.498483     0.942779    Uiso  ? H
   H14        1.0     0.952250     0.748483     0.085636    Uiso  ? H
   H14        1.0     0.952250     0.748483     0.228493    Uiso  ? H
   H14        1.0     0.952250     0.748483     0.371351    Uiso  ? H
   H14        1.0     0.952250     0.748483     0.514208    Uiso  ? H
   H14        1.0     0.952250     0.748483     0.657065    Uiso  ? H
   H14        1.0     0.952250     0.748483     0.799922    Uiso  ? H
   H14        1.0     0.952250     0.748483     0.942779    Uiso  ? H
   H15        1.0     0.291558     0.131212     0.085274    Uiso  ? H
   H15        1.0     0.291558     0.131212     0.228131    Uiso  ? H
   H15        1.0     0.291558     0.131212     0.370988    Uiso  ? H
   H15        1.0     0.291558     0.131212     0.513845    Uiso  ? H
   H15        1.0     0.291558     0.131212     0.656702    Uiso  ? H
   H15        1.0     0.291558     0.131212     0.799560    Uiso  ? H
   H15        1.0     0.291558     0.131212     0.942417    Uiso  ? H
   H15        1.0     0.291558     0.381212     0.085274    Uiso  ? H
   H15        1.0     0.291558     0.381212     0.228131    Uiso  ? H
   H15        1.0     0.291558     0.381212     0.370988    Uiso  ? H
   H15        1.0     0.291558     0.381212     0.513845    Uiso  ? H
   H15        1.0     0.291558     0.381212     0.656702    Uiso  ? H
   H15        1.0     0.291558     0.381212     0.799560    Uiso  ? H
   H15        1.0     0.291558     0.381212     0.942417    Uiso  ? H
   H15        1.0     0.291558     0.631212     0.085274    Uiso  ? H
   H15        1.0     0.291558     0.631212     0.228131    Uiso  ? H
   H15        1.0     0.291558     0.631212     0.370988    Uiso  ? H
   H15        1.0     0.291558     0.631212     0.513845    Uiso  ? H
   H15        1.0     0.291558     0.631212     0.656702    Uiso  ? H
   H15        1.0     0.291558     0.631212     0.799560    Uiso  ? H
   H15        1.0     0.291558     0.631212     0.942417    Uiso  ? H
   H15        1.0     0.291558     0.881212     0.085274    Uiso  ? H
   H15        1.0     0.291558     0.881212     0.228131    Uiso  ? H
   H15        1.0     0.291558     0.881212     0.370988    Uiso  ? H
   H15        1.0     0.291558     0.881212     0.513845    Uiso  ? H
   H15        1.0     0.291558     0.881212     0.656702    Uiso  ? H
   H15        1.0     0.291558     0.881212     0.799560    Uiso  ? H
   H15        1.0     0.291558     0.881212     0.942417    Uiso  ? H
   H15        1.0     0.624891     0.131212     0.085274    Uiso  ? H
   H15        1.0     0.624891     0.131212     0.228131    Uiso  ? H
   H15        1.0     0.624891     0.131212     0.370988    Uiso  ? H
   H15        1.0     0.624891     0.131212     0.513845    Uiso  ? H
   H15        1.0     0.624891     0.131212     0.656702    Uiso  ? H
   H15        1.0     0.624891     0.131212     0.799560    Uiso  ? H
   H15        1.0     0.624891     0.131212     0.942417    Uiso  ? H
   H15        1.0     0.624891     0.381212     0.085274    Uiso  ? H
   H15        1.0     0.624891     0.381212     0.228131    Uiso  ? H
   H15        1.0     0.624891     0.381212     0.370988    Uiso  ? H
   H15        1.0     0.624891     0.381212     0.513845    Uiso  ? H
   H15        1.0     0.624891     0.381212     0.656702    Uiso  ? H
   H15        1.0     0.624891     0.381212     0.799560    Uiso  ? H
   H15        1.0     0.624891     0.381212     0.942417    Uiso  ? H
   H15        1.0     0.624891     0.631212     0.085274    Uiso  ? H
   H15        1.0     0.624891     0.631212     0.228131    Uiso  ? H
   H15        1.0     0.624891     0.631212     0.370988    Uiso  ? H
   H15        1.0     0.624891     0.631212     0.513845    Uiso  ? H
   H15        1.0     0.624891     0.631212     0.656702    Uiso  ? H
   H15        1.0     0.624891     0.631212     0.799560    Uiso  ? H
   H15        1.0     0.624891     0.631212     0.942417    Uiso  ? H
   H15        1.0     0.624891     0.881212     0.085274    Uiso  ? H
   H15        1.0     0.624891     0.881212     0.228131    Uiso  ? H
   H15        1.0     0.624891     0.881212     0.370988    Uiso  ? H
   H15        1.0     0.624891     0.881212     0.513845    Uiso  ? H
   H15        1.0     0.624891     0.881212     0.656702    Uiso  ? H
   H15        1.0     0.624891     0.881212     0.799560    Uiso  ? H
   H15        1.0     0.624891     0.881212     0.942417    Uiso  ? H
   H15        1.0     0.958224     0.131212     0.085274    Uiso  ? H
   H15        1.0     0.958224     0.131212     0.228131    Uiso  ? H
   H15        1.0     0.958224     0.131212     0.370988    Uiso  ? H
   H15        1.0     0.958224     0.131212     0.513845    Uiso  ? H
   H15        1.0     0.958224     0.131212     0.656702    Uiso  ? H
   H15        1.0     0.958224     0.131212     0.799560    Uiso  ? H
   H15        1.0     0.958224     0.131212     0.942417    Uiso  ? H
   H15        1.0     0.958224     0.381212     0.085274    Uiso  ? H
   H15        1.0     0.958224     0.381212     0.228131    Uiso  ? H
   H15        1.0     0.958224     0.381212     0.370988    Uiso  ? H
   H15        1.0     0.958224     0.381212     0.513845    Uiso  ? H
   H15        1.0     0.958224     0.381212     0.656702    Uiso  ? H
   H15        1.0     0.958224     0.381212     0.799560    Uiso  ? H
   H15        1.0     0.958224     0.381212     0.942417    Uiso  ? H
   H15        1.0     0.958224     0.631212     0.085274    Uiso  ? H
   H15        1.0     0.958224     0.631212     0.228131    Uiso  ? H
   H15        1.0     0.958224     0.631212     0.370988    Uiso  ? H
   H15        1.0     0.958224     0.631212     0.513845    Uiso  ? H
   H15        1.0     0.958224     0.631212     0.656702    Uiso  ? H
   H15        1.0     0.958224     0.631212     0.799560    Uiso  ? H
   H15        1.0     0.958224     0.631212     0.942417    Uiso  ? H
   H15        1.0     0.958224     0.881212     0.085274    Uiso  ? H
   H15        1.0     0.958224     0.881212     0.228131    Uiso  ? H
   H15        1.0     0.958224     0.881212     0.370988    Uiso  ? H
   H15        1.0     0.958224     0.881212     0.513845    Uiso  ? H
   H15        1.0     0.958224     0.881212     0.656702    Uiso  ? H
   H15        1.0     0.958224     0.881212     0.799560    Uiso  ? H
   H15        1.0     0.958224     0.881212     0.942417    Uiso  ? H
   H16        1.0     0.171667     0.087275     0.080058    Uiso  ? H
   H16        1.0     0.171667     0.087275     0.222916    Uiso  ? H
   H16        1.0     0.171667     0.087275     0.365773    Uiso  ? H
   H16        1.0     0.171667     0.087275     0.508630    Uiso  ? H
   H16        1.0     0.171667     0.087275     0.651487    Uiso  ? H
   H16        1.0     0.171667     0.087275     0.794344    Uiso  ? H
   H16        1.0     0.171667     0.087275     0.937201    Uiso  ? H
   H16        1.0     0.171667     0.337275     0.080058    Uiso  ? H
   H16        1.0     0.171667     0.337275     0.222916    Uiso  ? H
   H16        1.0     0.171667     0.337275     0.365773    Uiso  ? H
   H16        1.0     0.171667     0.337275     0.508630    Uiso  ? H
   H16        1.0     0.171667     0.337275     0.651487    Uiso  ? H
   H16        1.0     0.171667     0.337275     0.794344    Uiso  ? H
   H16        1.0     0.171667     0.337275     0.937201    Uiso  ? H
   H16        1.0     0.171667     0.587275     0.080058    Uiso  ? H
   H16        1.0     0.171667     0.587275     0.222916    Uiso  ? H
   H16        1.0     0.171667     0.587275     0.365773    Uiso  ? H
   H16        1.0     0.171667     0.587275     0.508630    Uiso  ? H
   H16        1.0     0.171667     0.587275     0.651487    Uiso  ? H
   H16        1.0     0.171667     0.587275     0.794344    Uiso  ? H
   H16        1.0     0.171667     0.587275     0.937201    Uiso  ? H
   H16        1.0     0.171667     0.837275     0.080058    Uiso  ? H
   H16        1.0     0.171667     0.837275     0.222916    Uiso  ? H
   H16        1.0     0.171667     0.837275     0.365773    Uiso  ? H
   H16        1.0     0.171667     0.837275     0.508630    Uiso  ? H
   H16        1.0     0.171667     0.837275     0.651487    Uiso  ? H
   H16        1.0     0.171667     0.837275     0.794344    Uiso  ? H
   H16        1.0     0.171667     0.837275     0.937201    Uiso  ? H
   H16        1.0     0.505001     0.087275     0.080058    Uiso  ? H
   H16        1.0     0.505001     0.087275     0.222916    Uiso  ? H
   H16        1.0     0.505001     0.087275     0.365773    Uiso  ? H
   H16        1.0     0.505001     0.087275     0.508630    Uiso  ? H
   H16        1.0     0.505001     0.087275     0.651487    Uiso  ? H
   H16        1.0     0.505001     0.087275     0.794344    Uiso  ? H
   H16        1.0     0.505001     0.087275     0.937201    Uiso  ? H
   H16        1.0     0.505001     0.337275     0.080058    Uiso  ? H
   H16        1.0     0.505001     0.337275     0.222916    Uiso  ? H
   H16        1.0     0.505001     0.337275     0.365773    Uiso  ? H
   H16        1.0     0.505001     0.337275     0.508630    Uiso  ? H
   H16        1.0     0.505001     0.337275     0.651487    Uiso  ? H
   H16        1.0     0.505001     0.337275     0.794344    Uiso  ? H
   H16        1.0     0.505001     0.337275     0.937201    Uiso  ? H
   H16        1.0     0.505001     0.587275     0.080058    Uiso  ? H
   H16        1.0     0.505001     0.587275     0.222916    Uiso  ? H
   H16        1.0     0.505001     0.587275     0.365773    Uiso  ? H
   H16        1.0     0.505001     0.587275     0.508630    Uiso  ? H
   H16        1.0     0.505001     0.587275     0.651487    Uiso  ? H
   H16        1.0     0.505001     0.587275     0.794344    Uiso  ? H
   H16        1.0     0.505001     0.587275     0.937201    Uiso  ? H
   H16        1.0     0.505001     0.837275     0.080058    Uiso  ? H
   H16        1.0     0.505001     0.837275     0.222916    Uiso  ? H
   H16        1.0     0.505001     0.837275     0.365773    Uiso  ? H
   H16        1.0     0.505001     0.837275     0.508630    Uiso  ? H
   H16        1.0     0.505001     0.837275     0.651487    Uiso  ? H
   H16        1.0     0.505001     0.837275     0.794344    Uiso  ? H
   H16        1.0     0.505001     0.837275     0.937201    Uiso  ? H
   H16        1.0     0.838334     0.087275     0.080058    Uiso  ? H
   H16        1.0     0.838334     0.087275     0.222916    Uiso  ? H
   H16        1.0     0.838334     0.087275     0.365773    Uiso  ? H
   H16        1.0     0.838334     0.087275     0.508630    Uiso  ? H
   H16        1.0     0.838334     0.087275     0.651487    Uiso  ? H
   H16        1.0     0.838334     0.087275     0.794344    Uiso  ? H
   H16        1.0     0.838334     0.087275     0.937201    Uiso  ? H
   H16        1.0     0.838334     0.337275     0.080058    Uiso  ? H
   H16        1.0     0.838334     0.337275     0.222916    Uiso  ? H
   H16        1.0     0.838334     0.337275     0.365773    Uiso  ? H
   H16        1.0     0.838334     0.337275     0.508630    Uiso  ? H
   H16        1.0     0.838334     0.337275     0.651487    Uiso  ? H
   H16        1.0     0.838334     0.337275     0.794344    Uiso  ? H
   H16        1.0     0.838334     0.337275     0.937201    Uiso  ? H
   H16        1.0     0.838334     0.587275     0.080058    Uiso  ? H
   H16        1.0     0.838334     0.587275     0.222916    Uiso  ? H
   H16        1.0     0.838334     0.587275     0.365773    Uiso  ? H
   H16        1.0     0.838334     0.587275     0.508630    Uiso  ? H
   H16        1.0     0.838334     0.587275     0.651487    Uiso  ? H
   H16        1.0     0.838334     0.587275     0.794344    Uiso  ? H
   H16        1.0     0.838334     0.587275     0.937201    Uiso  ? H
   H16        1.0     0.838334     0.837275     0.080058    Uiso  ? H
   H16        1.0     0.838334     0.837275     0.222916    Uiso  ? H
   H16        1.0     0.838334     0.837275     0.365773    Uiso  ? H
   H16        1.0     0.838334     0.837275     0.508630    Uiso  ? H
   H16        1.0     0.838334     0.837275     0.651487    Uiso  ? H
   H16        1.0     0.838334     0.837275     0.794344    Uiso  ? H
   H16        1.0     0.838334     0.837275     0.937201    Uiso  ? H
   H17        1.0     0.194794     0.245305     0.074846    Uiso  ? H
   H17        1.0     0.194794     0.245305     0.217703    Uiso  ? H
   H17        1.0     0.194794     0.245305     0.360560    Uiso  ? H
   H17        1.0     0.194794     0.245305     0.503417    Uiso  ? H
   H17        1.0     0.194794     0.245305     0.646275    Uiso  ? H
   H17        1.0     0.194794     0.245305     0.789132    Uiso  ? H
   H17        1.0     0.194794     0.245305     0.931989    Uiso  ? H
   H17        1.0     0.194794     0.495305     0.074846    Uiso  ? H
   H17        1.0     0.194794     0.495305     0.217703    Uiso  ? H
   H17        1.0     0.194794     0.495305     0.360560    Uiso  ? H
   H17        1.0     0.194794     0.495305     0.503417    Uiso  ? H
   H17        1.0     0.194794     0.495305     0.646275    Uiso  ? H
   H17        1.0     0.194794     0.495305     0.789132    Uiso  ? H
   H17        1.0     0.194794     0.495305     0.931989    Uiso  ? H
   H17        1.0     0.194794     0.745305     0.074846    Uiso  ? H
   H17        1.0     0.194794     0.745305     0.217703    Uiso  ? H
   H17        1.0     0.194794     0.745305     0.360560    Uiso  ? H
   H17        1.0     0.194794     0.745305     0.503417    Uiso  ? H
   H17        1.0     0.194794     0.745305     0.646275    Uiso  ? H
   H17        1.0     0.194794     0.745305     0.789132    Uiso  ? H
   H17        1.0     0.194794     0.745305     0.931989    Uiso  ? H
   H17        1.0     0.194794     0.995305     0.074846    Uiso  ? H
   H17        1.0     0.194794     0.995305     0.217703    Uiso  ? H
   H17        1.0     0.194794     0.995305     0.360560    Uiso  ? H
   H17        1.0     0.194794     0.995305     0.503417    Uiso  ? H
   H17        1.0     0.194794     0.995305     0.646275    Uiso  ? H
   H17        1.0     0.194794     0.995305     0.789132    Uiso  ? H
   H17        1.0     0.194794     0.995305     0.931989    Uiso  ? H
   H17        1.0     0.528127     0.245305     0.074846    Uiso  ? H
   H17        1.0     0.528127     0.245305     0.217703    Uiso  ? H
   H17        1.0     0.528127     0.245305     0.360560    Uiso  ? H
   H17        1.0     0.528127     0.245305     0.503417    Uiso  ? H
   H17        1.0     0.528127     0.245305     0.646275    Uiso  ? H
   H17        1.0     0.528127     0.245305     0.789132    Uiso  ? H
   H17        1.0     0.528127     0.245305     0.931989    Uiso  ? H
   H17        1.0     0.528127     0.495305     0.074846    Uiso  ? H
   H17        1.0     0.528127     0.495305     0.217703    Uiso  ? H
   H17        1.0     0.528127     0.495305     0.360560    Uiso  ? H
   H17        1.0     0.528127     0.495305     0.503417    Uiso  ? H
   H17        1.0     0.528127     0.495305     0.646275    Uiso  ? H
   H17        1.0     0.528127     0.495305     0.789132    Uiso  ? H
   H17        1.0     0.528127     0.495305     0.931989    Uiso  ? H
   H17        1.0     0.528127     0.745305     0.074846    Uiso  ? H
   H17        1.0     0.528127     0.745305     0.217703    Uiso  ? H
   H17        1.0     0.528127     0.745305     0.360560    Uiso  ? H
   H17        1.0     0.528127     0.745305     0.503417    Uiso  ? H
   H17        1.0     0.528127     0.745305     0.646275    Uiso  ? H
   H17        1.0     0.528127     0.745305     0.789132    Uiso  ? H
   H17        1.0     0.528127     0.745305     0.931989    Uiso  ? H
   H17        1.0     0.528127     0.995305     0.074846    Uiso  ? H
   H17        1.0     0.528127     0.995305     0.217703    Uiso  ? H
   H17        1.0     0.528127     0.995305     0.360560    Uiso  ? H
   H17        1.0     0.528127     0.995305     0.503417    Uiso  ? H
   H17        1.0     0.528127     0.995305     0.646275    Uiso  ? H
   H17        1.0     0.528127     0.995305     0.789132    Uiso  ? H
   H17        1.0     0.528127     0.995305     0.931989    Uiso  ? H
   H17        1.0     0.861461     0.245305     0.074846    Uiso  ? H
   H17        1.0     0.861461     0.245305     0.217703    Uiso  ? H
   H17        1.0     0.861461     0.245305     0.360560    Uiso  ? H
   H17        1.0     0.861461     0.245305     0.503417    Uiso  ? H
   H17        1.0     0.861461     0.245305     0.646275    Uiso  ? H
   H17        1.0     0.861461     0.245305     0.789132    Uiso  ? H
   H17        1.0     0.861461     0.245305     0.931989    Uiso  ? H
   H17        1.0     0.861461     0.495305     0.074846    Uiso  ? H
   H17        1.0     0.861461     0.495305     0.217703    Uiso  ? H
   H17        1.0     0.861461     0.495305     0.360560    Uiso  ? H
   H17        1.0     0.861461     0.495305     0.503417    Uiso  ? H
   H17        1.0     0.861461     0.495305     0.646275    Uiso  ? H
   H17        1.0     0.861461     0.495305     0.789132    Uiso  ? H
   H17        1.0     0.861461     0.495305     0.931989    Uiso  ? H
   H17        1.0     0.861461     0.745305     0.074846    Uiso  ? H
   H17        1.0     0.861461     0.745305     0.217703    Uiso  ? H
   H17        1.0     0.861461     0.745305     0.360560    Uiso  ? H
   H17        1.0     0.861461     0.745305     0.503417    Uiso  ? H
   H17        1.0     0.861461     0.745305     0.646275    Uiso  ? H
   H17        1.0     0.861461     0.745305     0.789132    Uiso  ? H
   H17        1.0     0.861461     0.745305     0.931989    Uiso  ? H
   H17        1.0     0.861461     0.995305     0.074846    Uiso  ? H
   H17        1.0     0.861461     0.995305     0.217703    Uiso  ? H
   H17        1.0     0.861461     0.995305     0.360560    Uiso  ? H
   H17        1.0     0.861461     0.995305     0.503417    Uiso  ? H
   H17        1.0     0.861461     0.995305     0.646275    Uiso  ? H
   H17        1.0     0.861461     0.995305     0.789132    Uiso  ? H
   H17        1.0     0.861461     0.995305     0.931989    Uiso  ? H
   H18        1.0     0.198065     0.123786     0.073135    Uiso  ? H
   H18        1.0     0.198065     0.123786     0.215992    Uiso  ? H
   H18        1.0     0.198065     0.123786     0.358849    Uiso  ? H
   H18        1.0     0.198065     0.123786     0.501706    Uiso  ? H
   H18        1.0     0.198065     0.123786     0.644563    Uiso  ? H
   H18        1.0     0.198065     0.123786     0.787420    Uiso  ? H
   H18        1.0     0.198065     0.123786     0.930278    Uiso  ? H
   H18        1.0     0.198065     0.373786     0.073135    Uiso  ? H
   H18        1.0     0.198065     0.373786     0.215992    Uiso  ? H
   H18        1.0     0.198065     0.373786     0.358849    Uiso  ? H
   H18        1.0     0.198065     0.373786     0.501706    Uiso  ? H
   H18        1.0     0.198065     0.373786     0.644563    Uiso  ? H
   H18        1.0     0.198065     0.373786     0.787420    Uiso  ? H
   H18        1.0     0.198065     0.373786     0.930278    Uiso  ? H
   H18        1.0     0.198065     0.623786     0.073135    Uiso  ? H
   H18        1.0     0.198065     0.623786     0.215992    Uiso  ? H
   H18        1.0     0.198065     0.623786     0.358849    Uiso  ? H
   H18        1.0     0.198065     0.623786     0.501706    Uiso  ? H
   H18        1.0     0.198065     0.623786     0.644563    Uiso  ? H
   H18        1.0     0.198065     0.623786     0.787420    Uiso  ? H
   H18        1.0     0.198065     0.623786     0.930278    Uiso  ? H
   H18        1.0     0.198065     0.873786     0.073135    Uiso  ? H
   H18        1.0     0.198065     0.873786     0.215992    Uiso  ? H
   H18        1.0     0.198065     0.873786     0.358849    Uiso  ? H
   H18        1.0     0.198065     0.873786     0.501706    Uiso  ? H
   H18        1.0     0.198065     0.873786     0.644563    Uiso  ? H
   H18        1.0     0.198065     0.873786     0.787420    Uiso  ? H
   H18        1.0     0.198065     0.873786     0.930278    Uiso  ? H
   H18        1.0     0.531398     0.123786     0.073135    Uiso  ? H
   H18        1.0     0.531398     0.123786     0.215992    Uiso  ? H
   H18        1.0     0.531398     0.123786     0.358849    Uiso  ? H
   H18        1.0     0.531398     0.123786     0.501706    Uiso  ? H
   H18        1.0     0.531398     0.123786     0.644563    Uiso  ? H
   H18        1.0     0.531398     0.123786     0.787420    Uiso  ? H
   H18        1.0     0.531398     0.123786     0.930278    Uiso  ? H
   H18        1.0     0.531398     0.373786     0.073135    Uiso  ? H
   H18        1.0     0.531398     0.373786     0.215992    Uiso  ? H
   H18        1.0     0.531398     0.373786     0.358849    Uiso  ? H
   H18        1.0     0.531398     0.373786     0.501706    Uiso  ? H
   H18        1.0     0.531398     0.373786     0.644563    Uiso  ? H
   H18        1.0     0.531398     0.373786     0.787420    Uiso  ? H
   H18        1.0     0.531398     0.373786     0.930278    Uiso  ? H
   H18        1.0     0.531398     0.623786     0.073135    Uiso  ? H
   H18        1.0     0.531398     0.623786     0.215992    Uiso  ? H
   H18        1.0     0.531398     0.623786     0.358849    Uiso  ? H
   H18        1.0     0.531398     0.623786     0.501706    Uiso  ? H
   H18        1.0     0.531398     0.623786     0.644563    Uiso  ? H
   H18        1.0     0.531398     0.623786     0.787420    Uiso  ? H
   H18        1.0     0.531398     0.623786     0.930278    Uiso  ? H
   H18        1.0     0.531398     0.873786     0.073135    Uiso  ? H
   H18        1.0     0.531398     0.873786     0.215992    Uiso  ? H
   H18        1.0     0.531398     0.873786     0.358849    Uiso  ? H
   H18        1.0     0.531398     0.873786     0.501706    Uiso  ? H
   H18        1.0     0.531398     0.873786     0.644563    Uiso  ? H
   H18        1.0     0.531398     0.873786     0.787420    Uiso  ? H
   H18        1.0     0.531398     0.873786     0.930278    Uiso  ? H
   H18        1.0     0.864731     0.123786     0.073135    Uiso  ? H
   H18        1.0     0.864731     0.123786     0.215992    Uiso  ? H
   H18        1.0     0.864731     0.123786     0.358849    Uiso  ? H
   H18        1.0     0.864731     0.123786     0.501706    Uiso  ? H
   H18        1.0     0.864731     0.123786     0.644563    Uiso  ? H
   H18        1.0     0.864731     0.123786     0.787420    Uiso  ? H
   H18        1.0     0.864731     0.123786     0.930278    Uiso  ? H
   H18        1.0     0.864731     0.373786     0.073135    Uiso  ? H
   H18        1.0     0.864731     0.373786     0.215992    Uiso  ? H
   H18        1.0     0.864731     0.373786     0.358849    Uiso  ? H
   H18        1.0     0.864731     0.373786     0.501706    Uiso  ? H
   H18        1.0     0.864731     0.373786     0.644563    Uiso  ? H
   H18        1.0     0.864731     0.373786     0.787420    Uiso  ? H
   H18        1.0     0.864731     0.373786     0.930278    Uiso  ? H
   H18        1.0     0.864731     0.623786     0.073135    Uiso  ? H
   H18        1.0     0.864731     0.623786     0.215992    Uiso  ? H
   H18        1.0     0.864731     0.623786     0.358849    Uiso  ? H
   H18        1.0     0.864731     0.623786     0.501706    Uiso  ? H
   H18        1.0     0.864731     0.623786     0.644563    Uiso  ? H
   H18        1.0     0.864731     0.623786     0.787420    Uiso  ? H
   H18        1.0     0.864731     0.623786     0.930278    Uiso  ? H
   H18        1.0     0.864731     0.873786     0.073135    Uiso  ? H
   H18        1.0     0.864731     0.873786     0.215992    Uiso  ? H
   H18        1.0     0.864731     0.873786     0.358849    Uiso  ? H
   H18        1.0     0.864731     0.873786     0.501706    Uiso  ? H
   H18        1.0     0.864731     0.873786     0.644563    Uiso  ? H
   H18        1.0     0.864731     0.873786     0.787420    Uiso  ? H
   H18        1.0     0.864731     0.873786     0.930278    Uiso  ? H
   H19        1.0     0.134056     0.002646     0.066965    Uiso  ? H
   H19        1.0     0.134056     0.002646     0.209822    Uiso  ? H
   H19        1.0     0.134056     0.002646     0.352679    Uiso  ? H
   H19        1.0     0.134056     0.002646     0.495536    Uiso  ? H
   H19        1.0     0.134056     0.002646     0.638393    Uiso  ? H
   H19        1.0     0.134056     0.002646     0.781251    Uiso  ? H
   H19        1.0     0.134056     0.002646     0.924108    Uiso  ? H
   H19        1.0     0.134056     0.252646     0.066965    Uiso  ? H
   H19        1.0     0.134056     0.252646     0.209822    Uiso  ? H
   H19        1.0     0.134056     0.252646     0.352679    Uiso  ? H
   H19        1.0     0.134056     0.252646     0.495536    Uiso  ? H
   H19        1.0     0.134056     0.252646     0.638393    Uiso  ? H
   H19        1.0     0.134056     0.252646     0.781251    Uiso  ? H
   H19        1.0     0.134056     0.252646     0.924108    Uiso  ? H
   H19        1.0     0.134056     0.502646     0.066965    Uiso  ? H
   H19        1.0     0.134056     0.502646     0.209822    Uiso  ? H
   H19        1.0     0.134056     0.502646     0.352679    Uiso  ? H
   H19        1.0     0.134056     0.502646     0.495536    Uiso  ? H
   H19        1.0     0.134056     0.502646     0.638393    Uiso  ? H
   H19        1.0     0.134056     0.502646     0.781251    Uiso  ? H
   H19        1.0     0.134056     0.502646     0.924108    Uiso  ? H
   H19        1.0     0.134056     0.752646     0.066965    Uiso  ? H
   H19        1.0     0.134056     0.752646     0.209822    Uiso  ? H
   H19        1.0     0.134056     0.752646     0.352679    Uiso  ? H
   H19        1.0     0.134056     0.752646     0.495536    Uiso  ? H
   H19        1.0     0.134056     0.752646     0.638393    Uiso  ? H
   H19        1.0     0.134056     0.752646     0.781251    Uiso  ? H
   H19        1.0     0.134056     0.752646     0.924108    Uiso  ? H
   H19        1.0     0.467389     0.002646     0.066965    Uiso  ? H
   H19        1.0     0.467389     0.002646     0.209822    Uiso  ? H
   H19        1.0     0.467389     0.002646     0.352679    Uiso  ? H
   H19        1.0     0.467389     0.002646     0.495536    Uiso  ? H
   H19        1.0     0.467389     0.002646     0.638393    Uiso  ? H
   H19        1.0     0.467389     0.002646     0.781251    Uiso  ? H
   H19        1.0     0.467389     0.002646     0.924108    Uiso  ? H
   H19        1.0     0.467389     0.252646     0.066965    Uiso  ? H
   H19        1.0     0.467389     0.252646     0.209822    Uiso  ? H
   H19        1.0     0.467389     0.252646     0.352679    Uiso  ? H
   H19        1.0     0.467389     0.252646     0.495536    Uiso  ? H
   H19        1.0     0.467389     0.252646     0.638393    Uiso  ? H
   H19        1.0     0.467389     0.252646     0.781251    Uiso  ? H
   H19        1.0     0.467389     0.252646     0.924108    Uiso  ? H
   H19        1.0     0.467389     0.502646     0.066965    Uiso  ? H
   H19        1.0     0.467389     0.502646     0.209822    Uiso  ? H
   H19        1.0     0.467389     0.502646     0.352679    Uiso  ? H
   H19        1.0     0.467389     0.502646     0.495536    Uiso  ? H
   H19        1.0     0.467389     0.502646     0.638393    Uiso  ? H
   H19        1.0     0.467389     0.502646     0.781251    Uiso  ? H
   H19        1.0     0.467389     0.502646     0.924108    Uiso  ? H
   H19        1.0     0.467389     0.752646     0.066965    Uiso  ? H
   H19        1.0     0.467389     0.752646     0.209822    Uiso  ? H
   H19        1.0     0.467389     0.752646     0.352679    Uiso  ? H
   H19        1.0     0.467389     0.752646     0.495536    Uiso  ? H
   H19        1.0     0.467389     0.752646     0.638393    Uiso  ? H
   H19        1.0     0.467389     0.752646     0.781251    Uiso  ? H
   H19        1.0     0.467389     0.752646     0.924108    Uiso  ? H
   H19        1.0     0.800722     0.002646     0.066965    Uiso  ? H
   H19        1.0     0.800722     0.002646     0.209822    Uiso  ? H
   H19        1.0     0.800722     0.002646     0.352679    Uiso  ? H
   H19        1.0     0.800722     0.002646     0.495536    Uiso  ? H
   H19        1.0     0.800722     0.002646     0.638393    Uiso  ? H
   H19        1.0     0.800722     0.002646     0.781251    Uiso  ? H
   H19        1.0     0.800722     0.002646     0.924108    Uiso  ? H
   H19        1.0     0.800722     0.252646     0.066965    Uiso  ? H
   H19        1.0     0.800722     0.252646     0.209822    Uiso  ? H
   H19        1.0     0.800722     0.252646     0.352679    Uiso  ? H
   H19        1.0     0.800722     0.252646     0.495536    Uiso  ? H
   H19        1.0     0.800722     0.252646     0.638393    Uiso  ? H
   H19        1.0     0.800722     0.252646     0.781251    Uiso  ? H
   H19        1.0     0.800722     0.252646     0.924108    Uiso  ? H
   H19        1.0     0.800722     0.502646     0.066965    Uiso  ? H
   H19        1.0     0.800722     0.502646     0.209822    Uiso  ? H
   H19        1.0     0.800722     0.502646     0.352679    Uiso  ? H
   H19        1.0     0.800722     0.502646     0.495536    Uiso  ? H
   H19        1.0     0.800722     0.502646     0.638393    Uiso  ? H
   H19        1.0     0.800722     0.502646     0.781251    Uiso  ? H
   H19        1.0     0.800722     0.502646     0.924108    Uiso  ? H
   H19        1.0     0.800722     0.752646     0.066965    Uiso  ? H
   H19        1.0     0.800722     0.752646     0.209822    Uiso  ? H
   H19        1.0     0.800722     0.752646     0.352679    Uiso  ? H
   H19        1.0     0.800722     0.752646     0.495536    Uiso  ? H
   H19        1.0     0.800722     0.752646     0.638393    Uiso  ? H
   H19        1.0     0.800722     0.752646     0.781251    Uiso  ? H
   H19        1.0     0.800722     0.752646     0.924108    Uiso  ? H
   H20        1.0     0.137659     0.122400     0.065701    Uiso  ? H
   H20        1.0     0.137659     0.122400     0.208558    Uiso  ? H
   H20        1.0     0.137659     0.122400     0.351415    Uiso  ? H
   H20        1.0     0.137659     0.122400     0.494272    Uiso  ? H
   H20        1.0     0.137659     0.122400     0.637130    Uiso  ? H
   H20        1.0     0.137659     0.122400     0.779987    Uiso  ? H
   H20        1.0     0.137659     0.122400     0.922844    Uiso  ? H
   H20        1.0     0.137659     0.372400     0.065701    Uiso  ? H
   H20        1.0     0.137659     0.372400     0.208558    Uiso  ? H
   H20        1.0     0.137659     0.372400     0.351415    Uiso  ? H
   H20        1.0     0.137659     0.372400     0.494272    Uiso  ? H
   H20        1.0     0.137659     0.372400     0.637130    Uiso  ? H
   H20        1.0     0.137659     0.372400     0.779987    Uiso  ? H
   H20        1.0     0.137659     0.372400     0.922844    Uiso  ? H
   H20        1.0     0.137659     0.622400     0.065701    Uiso  ? H
   H20        1.0     0.137659     0.622400     0.208558    Uiso  ? H
   H20        1.0     0.137659     0.622400     0.351415    Uiso  ? H
   H20        1.0     0.137659     0.622400     0.494272    Uiso  ? H
   H20        1.0     0.137659     0.622400     0.637130    Uiso  ? H
   H20        1.0     0.137659     0.622400     0.779987    Uiso  ? H
   H20        1.0     0.137659     0.622400     0.922844    Uiso  ? H
   H20        1.0     0.137659     0.872400     0.065701    Uiso  ? H
   H20        1.0     0.137659     0.872400     0.208558    Uiso  ? H
   H20        1.0     0.137659     0.872400     0.351415    Uiso  ? H
   H20        1.0     0.137659     0.872400     0.494272    Uiso  ? H
   H20        1.0     0.137659     0.872400     0.637130    Uiso  ? H
   H20        1.0     0.137659     0.872400     0.779987    Uiso  ? H
   H20        1.0     0.137659     0.872400     0.922844    Uiso  ? H
   H20        1.0     0.470992     0.122400     0.065701    Uiso  ? H
   H20        1.0     0.470992     0.122400     0.208558    Uiso  ? H
   H20        1.0     0.470992     0.122400     0.351415    Uiso  ? H
   H20        1.0     0.470992     0.122400     0.494272    Uiso  ? H
   H20        1.0     0.470992     0.122400     0.637130    Uiso  ? H
   H20        1.0     0.470992     0.122400     0.779987    Uiso  ? H
   H20        1.0     0.470992     0.122400     0.922844    Uiso  ? H
   H20        1.0     0.470992     0.372400     0.065701    Uiso  ? H
   H20        1.0     0.470992     0.372400     0.208558    Uiso  ? H
   H20        1.0     0.470992     0.372400     0.351415    Uiso  ? H
   H20        1.0     0.470992     0.372400     0.494272    Uiso  ? H
   H20        1.0     0.470992     0.372400     0.637130    Uiso  ? H
   H20        1.0     0.470992     0.372400     0.779987    Uiso  ? H
   H20        1.0     0.470992     0.372400     0.922844    Uiso  ? H
   H20        1.0     0.470992     0.622400     0.065701    Uiso  ? H
   H20        1.0     0.470992     0.622400     0.208558    Uiso  ? H
   H20        1.0     0.470992     0.622400     0.351415    Uiso  ? H
   H20        1.0     0.470992     0.622400     0.494272    Uiso  ? H
   H20        1.0     0.470992     0.622400     0.637130    Uiso  ? H
   H20        1.0     0.470992     0.622400     0.779987    Uiso  ? H
   H20        1.0     0.470992     0.622400     0.922844    Uiso  ? H
   H20        1.0     0.470992     0.872400     0.065701    Uiso  ? H
   H20        1.0     0.470992     0.872400     0.208558    Uiso  ? H
   H20        1.0     0.470992     0.872400     0.351415    Uiso  ? H
   H20        1.0     0.470992     0.872400     0.494272    Uiso  ? H
   H20        1.0     0.470992     0.872400     0.637130    Uiso  ? H
   H20        1.0     0.470992     0.872400     0.779987    Uiso  ? H
   H20        1.0     0.470992     0.872400     0.922844    Uiso  ? H
   H20        1.0     0.804325     0.122400     0.065701    Uiso  ? H
   H20        1.0     0.804325     0.122400     0.208558    Uiso  ? H
   H20        1.0     0.804325     0.122400     0.351415    Uiso  ? H
   H20        1.0     0.804325     0.122400     0.494272    Uiso  ? H
   H20        1.0     0.804325     0.122400     0.637130    Uiso  ? H
   H20        1.0     0.804325     0.122400     0.779987    Uiso  ? H
   H20        1.0     0.804325     0.122400     0.922844    Uiso  ? H
   H20        1.0     0.804325     0.372400     0.065701    Uiso  ? H
   H20        1.0     0.804325     0.372400     0.208558    Uiso  ? H
   H20        1.0     0.804325     0.372400     0.351415    Uiso  ? H
   H20        1.0     0.804325     0.372400     0.494272    Uiso  ? H
   H20        1.0     0.804325     0.372400     0.637130    Uiso  ? H
   H20        1.0     0.804325     0.372400     0.779987    Uiso  ? H
   H20        1.0     0.804325     0.372400     0.922844    Uiso  ? H
   H20        1.0     0.804325     0.622400     0.065701    Uiso  ? H
   H20        1.0     0.804325     0.622400     0.208558    Uiso  ? H
   H20        1.0     0.804325     0.622400     0.351415    Uiso  ? H
   H20        1.0     0.804325     0.622400     0.494272    Uiso  ? H
   H20        1.0     0.804325     0.622400     0.637130    Uiso  ? H
   H20        1.0     0.804325     0.622400     0.779987    Uiso  ? H
   H20        1.0     0.804325     0.622400     0.922844    Uiso  ? H
   H20        1.0     0.804325     0.872400     0.065701    Uiso  ? H
   H20        1.0     0.804325     0.872400     0.208558    Uiso  ? H
   H20        1.0     0.804325     0.872400     0.351415    Uiso  ? H
   H20        1.0     0.804325     0.872400     0.494272    Uiso  ? H
   H20        1.0     0.804325     0.872400     0.637130    Uiso  ? H
   H20        1.0     0.804325     0.872400     0.779987    Uiso  ? H
   H20        1.0     0.804325     0.872400     0.922844    Uiso  ? H
   H21        1.0     0.045676     0.126222     0.055771    Uiso  ? H
   H21        1.0     0.045676     0.126222     0.198628    Uiso  ? H
   H21        1.0     0.045676     0.126222     0.341485    Uiso  ? H
   H21        1.0     0.045676     0.126222     0.484342    Uiso  ? H
   H21        1.0     0.045676     0.126222     0.627199    Uiso  ? H
   H21        1.0     0.045676     0.126222     0.770056    Uiso  ? H
   H21        1.0     0.045676     0.126222     0.912914    Uiso  ? H
   H21        1.0     0.045676     0.376222     0.055771    Uiso  ? H
   H21        1.0     0.045676     0.376222     0.198628    Uiso  ? H
   H21        1.0     0.045676     0.376222     0.341485    Uiso  ? H
   H21        1.0     0.045676     0.376222     0.484342    Uiso  ? H
   H21        1.0     0.045676     0.376222     0.627199    Uiso  ? H
   H21        1.0     0.045676     0.376222     0.770056    Uiso  ? H
   H21        1.0     0.045676     0.376222     0.912914    Uiso  ? H
   H21        1.0     0.045676     0.626222     0.055771    Uiso  ? H
   H21        1.0     0.045676     0.626222     0.198628    Uiso  ? H
   H21        1.0     0.045676     0.626222     0.341485    Uiso  ? H
   H21        1.0     0.045676     0.626222     0.484342    Uiso  ? H
   H21        1.0     0.045676     0.626222     0.627199    Uiso  ? H
   H21        1.0     0.045676     0.626222     0.770056    Uiso  ? H
   H21        1.0     0.045676     0.626222     0.912914    Uiso  ? H
   H21        1.0     0.045676     0.876222     0.055771    Uiso  ? H
   H21        1.0     0.045676     0.876222     0.198628    Uiso  ? H
   H21        1.0     0.045676     0.876222     0.341485    Uiso  ? H
   H21        1.0     0.045676     0.876222     0.484342    Uiso  ? H
   H21        1.0     0.045676     0.876222     0.627199    Uiso  ? H
   H21        1.0     0.045676     0.876222     0.770056    Uiso  ? H
   H21        1.0     0.045676     0.876222     0.912914    Uiso  ? H
   H21        1.0     0.379010     0.126222     0.055771    Uiso  ? H
   H21        1.0     0.379010     0.126222     0.198628    Uiso  ? H
   H21        1.0     0.379010     0.126222     0.341485    Uiso  ? H
   H21        1.0     0.379010     0.126222     0.484342    Uiso  ? H
   H21        1.0     0.379010     0.126222     0.627199    Uiso  ? H
   H21        1.0     0.379010     0.126222     0.770056    Uiso  ? H
   H21        1.0     0.379010     0.126222     0.912914    Uiso  ? H
   H21        1.0     0.379010     0.376222     0.055771    Uiso  ? H
   H21        1.0     0.379010     0.376222     0.198628    Uiso  ? H
   H21        1.0     0.379010     0.376222     0.341485    Uiso  ? H
   H21        1.0     0.379010     0.376222     0.484342    Uiso  ? H
   H21        1.0     0.379010     0.376222     0.627199    Uiso  ? H
   H21        1.0     0.379010     0.376222     0.770056    Uiso  ? H
   H21        1.0     0.379010     0.376222     0.912914    Uiso  ? H
   H21        1.0     0.379010     0.626222     0.055771    Uiso  ? H
   H21        1.0     0.379010     0.626222     0.198628    Uiso  ? H
   H21        1.0     0.379010     0.626222     0.341485    Uiso  ? H
   H21        1.0     0.379010     0.626222     0.484342    Uiso  ? H
   H21        1.0     0.379010     0.626222     0.627199    Uiso  ? H
   H21        1.0     0.379010     0.626222     0.770056    Uiso  ? H
   H21        1.0     0.379010     0.626222     0.912914    Uiso  ? H
   H21        1.0     0.379010     0.876222     0.055771    Uiso  ? H
   H21        1.0     0.379010     0.876222     0.198628    Uiso  ? H
   H21        1.0     0.379010     0.876222     0.341485    Uiso  ? H
   H21        1.0     0.379010     0.876222     0.484342    Uiso  ? H
   H21        1.0     0.379010     0.876222     0.627199    Uiso  ? H
   H21        1.0     0.379010     0.876222     0.770056    Uiso  ? H
   H21        1.0     0.379010     0.876222     0.912914    Uiso  ? H
   H21        1.0     0.712343     0.126222     0.055771    Uiso  ? H
   H21        1.0     0.712343     0.126222     0.198628    Uiso  ? H
   H21        1.0     0.712343     0.126222     0.341485    Uiso  ? H
   H21        1.0     0.712343     0.126222     0.484342    Uiso  ? H
   H21        1.0     0.712343     0.126222     0.627199    Uiso  ? H
   H21        1.0     0.712343     0.126222     0.770056    Uiso  ? H
   H21        1.0     0.712343     0.126222     0.912914    Uiso  ? H
   H21        1.0     0.712343     0.376222     0.055771    Uiso  ? H
   H21        1.0     0.712343     0.376222     0.198628    Uiso  ? H
   H21        1.0     0.712343     0.376222     0.341485    Uiso  ? H
   H21        1.0     0.712343     0.376222     0.484342    Uiso  ? H
   H21        1.0     0.712343     0.376222     0.627199    Uiso  ? H
   H21        1.0     0.712343     0.376222     0.770056    Uiso  ? H
   H21        1.0     0.712343     0.376222     0.912914    Uiso  ? H
   H21        1.0     0.712343     0.626222     0.055771    Uiso  ? H
   H21        1.0     0.712343     0.626222     0.198628    Uiso  ? H
   H21        1.0     0.712343     0.626222     0.341485    Uiso  ? H
   H21        1.0     0.712343     0.626222     0.484342    Uiso  ? H
   H21        1.0     0.712343     0.626222     0.627199    Uiso  ? H
   H21        1.0     0.712343     0.626222     0.770056    Uiso  ? H
   H21        1.0     0.712343     0.626222     0.912914    Uiso  ? H
   H21        1.0     0.712343     0.876222     0.055771    Uiso  ? H
   H21        1.0     0.712343     0.876222     0.198628    Uiso  ? H
   H21        1.0     0.712343     0.876222     0.341485    Uiso  ? H
   H21        1.0     0.712343     0.876222     0.484342    Uiso  ? H
   H21        1.0     0.712343     0.876222     0.627199    Uiso  ? H
   H21        1.0     0.712343     0.876222     0.770056    Uiso  ? H
   H21        1.0     0.712343     0.876222     0.912914    Uiso  ? H
   H22        1.0     0.042153     0.006269     0.054983    Uiso  ? H
   H22        1.0     0.042153     0.006269     0.197840    Uiso  ? H
   H22        1.0     0.042153     0.006269     0.340697    Uiso  ? H
   H22        1.0     0.042153     0.006269     0.483555    Uiso  ? H
   H22        1.0     0.042153     0.006269     0.626412    Uiso  ? H
   H22        1.0     0.042153     0.006269     0.769269    Uiso  ? H
   H22        1.0     0.042153     0.006269     0.912126    Uiso  ? H
   H22        1.0     0.042153     0.256269     0.054983    Uiso  ? H
   H22        1.0     0.042153     0.256269     0.197840    Uiso  ? H
   H22        1.0     0.042153     0.256269     0.340697    Uiso  ? H
   H22        1.0     0.042153     0.256269     0.483555    Uiso  ? H
   H22        1.0     0.042153     0.256269     0.626412    Uiso  ? H
   H22        1.0     0.042153     0.256269     0.769269    Uiso  ? H
   H22        1.0     0.042153     0.256269     0.912126    Uiso  ? H
   H22        1.0     0.042153     0.506269     0.054983    Uiso  ? H
   H22        1.0     0.042153     0.506269     0.197840    Uiso  ? H
   H22        1.0     0.042153     0.506269     0.340697    Uiso  ? H
   H22        1.0     0.042153     0.506269     0.483555    Uiso  ? H
   H22        1.0     0.042153     0.506269     0.626412    Uiso  ? H
   H22        1.0     0.042153     0.506269     0.769269    Uiso  ? H
   H22        1.0     0.042153     0.506269     0.912126    Uiso  ? H
   H22        1.0     0.042153     0.756269     0.054983    Uiso  ? H
   H22        1.0     0.042153     0.756269     0.197840    Uiso  ? H
   H22        1.0     0.042153     0.756269     0.340697    Uiso  ? H
   H22        1.0     0.042153     0.756269     0.483555    Uiso  ? H
   H22        1.0     0.042153     0.756269     0.626412    Uiso  ? H
   H22        1.0     0.042153     0.756269     0.769269    Uiso  ? H
   H22        1.0     0.042153     0.756269     0.912126    Uiso  ? H
   H22        1.0     0.375486     0.006269     0.054983    Uiso  ? H
   H22        1.0     0.375486     0.006269     0.197840    Uiso  ? H
   H22        1.0     0.375486     0.006269     0.340697    Uiso  ? H
   H22        1.0     0.375486     0.006269     0.483555    Uiso  ? H
   H22        1.0     0.375486     0.006269     0.626412    Uiso  ? H
   H22        1.0     0.375486     0.006269     0.769269    Uiso  ? H
   H22        1.0     0.375486     0.006269     0.912126    Uiso  ? H
   H22        1.0     0.375486     0.256269     0.054983    Uiso  ? H
   H22        1.0     0.375486     0.256269     0.197840    Uiso  ? H
   H22        1.0     0.375486     0.256269     0.340697    Uiso  ? H
   H22        1.0     0.375486     0.256269     0.483555    Uiso  ? H
   H22        1.0     0.375486     0.256269     0.626412    Uiso  ? H
   H22        1.0     0.375486     0.256269     0.769269    Uiso  ? H
   H22        1.0     0.375486     0.256269     0.912126    Uiso  ? H
   H22        1.0     0.375486     0.506269     0.054983    Uiso  ? H
   H22        1.0     0.375486     0.506269     0.197840    Uiso  ? H
   H22        1.0     0.375486     0.506269     0.340697    Uiso  ? H
   H22        1.0     0.375486     0.506269     0.483555    Uiso  ? H
   H22        1.0     0.375486     0.506269     0.626412    Uiso  ? H
   H22        1.0     0.375486     0.506269     0.769269    Uiso  ? H
   H22        1.0     0.375486     0.506269     0.912126    Uiso  ? H
   H22        1.0     0.375486     0.756269     0.054983    Uiso  ? H
   H22        1.0     0.375486     0.756269     0.197840    Uiso  ? H
   H22        1.0     0.375486     0.756269     0.340697    Uiso  ? H
   H22        1.0     0.375486     0.756269     0.483555    Uiso  ? H
   H22        1.0     0.375486     0.756269     0.626412    Uiso  ? H
   H22        1.0     0.375486     0.756269     0.769269    Uiso  ? H
   H22        1.0     0.375486     0.756269     0.912126    Uiso  ? H
   H22        1.0     0.708819     0.006269     0.054983    Uiso  ? H
   H22        1.0     0.708819     0.006269     0.197840    Uiso  ? H
   H22        1.0     0.708819     0.006269     0.340697    Uiso  ? H
   H22        1.0     0.708819     0.006269     0.483555    Uiso  ? H
   H22        1.0     0.708819     0.006269     0.626412    Uiso  ? H
   H22        1.0     0.708819     0.006269     0.769269    Uiso  ? H
   H22        1.0     0.708819     0.006269     0.912126    Uiso  ? H
   H22        1.0     0.708819     0.256269     0.054983    Uiso  ? H
   H22        1.0     0.708819     0.256269     0.197840    Uiso  ? H
   H22        1.0     0.708819     0.256269     0.340697    Uiso  ? H
   H22        1.0     0.708819     0.256269     0.483555    Uiso  ? H
   H22        1.0     0.708819     0.256269     0.626412    Uiso  ? H
   H22        1.0     0.708819     0.256269     0.769269    Uiso  ? H
   H22        1.0     0.708819     0.256269     0.912126    Uiso  ? H
   H22        1.0     0.708819     0.506269     0.054983    Uiso  ? H
   H22        1.0     0.708819     0.506269     0.197840    Uiso  ? H
   H22        1.0     0.708819     0.506269     0.340697    Uiso  ? H
   H22        1.0     0.708819     0.506269     0.483555    Uiso  ? H
   H22        1.0     0.708819     0.506269     0.626412    Uiso  ? H
   H22        1.0     0.708819     0.506269     0.769269    Uiso  ? H
   H22        1.0     0.708819     0.506269     0.912126    Uiso  ? H
   H22        1.0     0.708819     0.756269     0.054983    Uiso  ? H
   H22        1.0     0.708819     0.756269     0.197840    Uiso  ? H
   H22        1.0     0.708819     0.756269     0.340697    Uiso  ? H
   H22        1.0     0.708819     0.756269     0.483555    Uiso  ? H
   H22        1.0     0.708819     0.756269     0.626412    Uiso  ? H
   H22        1.0     0.708819     0.756269     0.769269    Uiso  ? H
   H22        1.0     0.708819     0.756269     0.912126    Uiso  ? H
   H23        1.0     0.160651     0.216339     0.059635    Uiso  ? H
   H23        1.0     0.160651     0.216339     0.202492    Uiso  ? H
   H23        1.0     0.160651     0.216339     0.345349    Uiso  ? H
   H23        1.0     0.160651     0.216339     0.488206    Uiso  ? H
   H23        1.0     0.160651     0.216339     0.631063    Uiso  ? H
   H23        1.0     0.160651     0.216339     0.773920    Uiso  ? H
   H23        1.0     0.160651     0.216339     0.916778    Uiso  ? H
   H23        1.0     0.160651     0.466339     0.059635    Uiso  ? H
   H23        1.0     0.160651     0.466339     0.202492    Uiso  ? H
   H23        1.0     0.160651     0.466339     0.345349    Uiso  ? H
   H23        1.0     0.160651     0.466339     0.488206    Uiso  ? H
   H23        1.0     0.160651     0.466339     0.631063    Uiso  ? H
   H23        1.0     0.160651     0.466339     0.773920    Uiso  ? H
   H23        1.0     0.160651     0.466339     0.916778    Uiso  ? H
   H23        1.0     0.160651     0.716339     0.059635    Uiso  ? H
   H23        1.0     0.160651     0.716339     0.202492    Uiso  ? H
   H23        1.0     0.160651     0.716339     0.345349    Uiso  ? H
   H23        1.0     0.160651     0.716339     0.488206    Uiso  ? H
   H23        1.0     0.160651     0.716339     0.631063    Uiso  ? H
   H23        1.0     0.160651     0.716339     0.773920    Uiso  ? H
   H23        1.0     0.160651     0.716339     0.916778    Uiso  ? H
   H23        1.0     0.160651     0.966339     0.059635    Uiso  ? H
   H23        1.0     0.160651     0.966339     0.202492    Uiso  ? H
   H23        1.0     0.160651     0.966339     0.345349    Uiso  ? H
   H23        1.0     0.160651     0.966339     0.488206    Uiso  ? H
   H23        1.0     0.160651     0.966339     0.631063    Uiso  ? H
   H23        1.0     0.160651     0.966339     0.773920    Uiso  ? H
   H23        1.0     0.160651     0.966339     0.916778    Uiso  ? H
   H23        1.0     0.493984     0.216339     0.059635    Uiso  ? H
   H23        1.0     0.493984     0.216339     0.202492    Uiso  ? H
   H23        1.0     0.493984     0.216339     0.345349    Uiso  ? H
   H23        1.0     0.493984     0.216339     0.488206    Uiso  ? H
   H23        1.0     0.493984     0.216339     0.631063    Uiso  ? H
   H23        1.0     0.493984     0.216339     0.773920    Uiso  ? H
   H23        1.0     0.493984     0.216339     0.916778    Uiso  ? H
   H23        1.0     0.493984     0.466339     0.059635    Uiso  ? H
   H23        1.0     0.493984     0.466339     0.202492    Uiso  ? H
   H23        1.0     0.493984     0.466339     0.345349    Uiso  ? H
   H23        1.0     0.493984     0.466339     0.488206    Uiso  ? H
   H23        1.0     0.493984     0.466339     0.631063    Uiso  ? H
   H23        1.0     0.493984     0.466339     0.773920    Uiso  ? H
   H23        1.0     0.493984     0.466339     0.916778    Uiso  ? H
   H23        1.0     0.493984     0.716339     0.059635    Uiso  ? H
   H23        1.0     0.493984     0.716339     0.202492    Uiso  ? H
   H23        1.0     0.493984     0.716339     0.345349    Uiso  ? H
   H23        1.0     0.493984     0.716339     0.488206    Uiso  ? H
   H23        1.0     0.493984     0.716339     0.631063    Uiso  ? H
   H23        1.0     0.493984     0.716339     0.773920    Uiso  ? H
   H23        1.0     0.493984     0.716339     0.916778    Uiso  ? H
   H23        1.0     0.493984     0.966339     0.059635    Uiso  ? H
   H23        1.0     0.493984     0.966339     0.202492    Uiso  ? H
   H23        1.0     0.493984     0.966339     0.345349    Uiso  ? H
   H23        1.0     0.493984     0.966339     0.488206    Uiso  ? H
   H23        1.0     0.493984     0.966339     0.631063    Uiso  ? H
   H23        1.0     0.493984     0.966339     0.773920    Uiso  ? H
   H23        1.0     0.493984     0.966339     0.916778    Uiso  ? H
   H23        1.0     0.827318     0.216339     0.059635    Uiso  ? H
   H23        1.0     0.827318     0.216339     0.202492    Uiso  ? H
   H23        1.0     0.827318     0.216339     0.345349    Uiso  ? H
   H23        1.0     0.827318     0.216339     0.488206    Uiso  ? H
   H23        1.0     0.827318     0.216339     0.631063    Uiso  ? H
   H23        1.0     0.827318     0.216339     0.773920    Uiso  ? H
   H23        1.0     0.827318     0.216339     0.916778    Uiso  ? H
   H23        1.0     0.827318     0.466339     0.059635    Uiso  ? H
   H23        1.0     0.827318     0.466339     0.202492    Uiso  ? H
   H23        1.0     0.827318     0.466339     0.345349    Uiso  ? H
   H23        1.0     0.827318     0.466339     0.488206    Uiso  ? H
   H23        1.0     0.827318     0.466339     0.631063    Uiso  ? H
   H23        1.0     0.827318     0.466339     0.773920    Uiso  ? H
   H23        1.0     0.827318     0.466339     0.916778    Uiso  ? H
   H23        1.0     0.827318     0.716339     0.059635    Uiso  ? H
   H23        1.0     0.827318     0.716339     0.202492    Uiso  ? H
   H23        1.0     0.827318     0.716339     0.345349    Uiso  ? H
   H23        1.0     0.827318     0.716339     0.488206    Uiso  ? H
   H23        1.0     0.827318     0.716339     0.631063    Uiso  ? H
   H23        1.0     0.827318     0.716339     0.773920    Uiso  ? H
   H23        1.0     0.827318     0.716339     0.916778    Uiso  ? H
   H23        1.0     0.827318     0.966339     0.059635    Uiso  ? H
   H23        1.0     0.827318     0.966339     0.202492    Uiso  ? H
   H23        1.0     0.827318     0.966339     0.345349    Uiso  ? H
   H23        1.0     0.827318     0.966339     0.488206    Uiso  ? H
   H23        1.0     0.827318     0.966339     0.631063    Uiso  ? H
   H23        1.0     0.827318     0.966339     0.773920    Uiso  ? H
   H23        1.0     0.827318     0.966339     0.916778    Uiso  ? H
   H24        1.0     0.164060     0.158887     0.058469    Uiso  ? H
   H24        1.0     0.164060     0.158887     0.201326    Uiso  ? H
   H24        1.0     0.164060     0.158887     0.344183    Uiso  ? H
   H24        1.0     0.164060     0.158887     0.487041    Uiso  ? H
   H24        1.0     0.164060     0.158887     0.629898    Uiso  ? H
   H24        1.0     0.164060     0.158887     0.772755    Uiso  ? H
   H24        1.0     0.164060     0.158887     0.915612    Uiso  ? H
   H24        1.0     0.164060     0.408887     0.058469    Uiso  ? H
   H24        1.0     0.164060     0.408887     0.201326    Uiso  ? H
   H24        1.0     0.164060     0.408887     0.344183    Uiso  ? H
   H24        1.0     0.164060     0.408887     0.487041    Uiso  ? H
   H24        1.0     0.164060     0.408887     0.629898    Uiso  ? H
   H24        1.0     0.164060     0.408887     0.772755    Uiso  ? H
   H24        1.0     0.164060     0.408887     0.915612    Uiso  ? H
   H24        1.0     0.164060     0.658887     0.058469    Uiso  ? H
   H24        1.0     0.164060     0.658887     0.201326    Uiso  ? H
   H24        1.0     0.164060     0.658887     0.344183    Uiso  ? H
   H24        1.0     0.164060     0.658887     0.487041    Uiso  ? H
   H24        1.0     0.164060     0.658887     0.629898    Uiso  ? H
   H24        1.0     0.164060     0.658887     0.772755    Uiso  ? H
   H24        1.0     0.164060     0.658887     0.915612    Uiso  ? H
   H24        1.0     0.164060     0.908887     0.058469    Uiso  ? H
   H24        1.0     0.164060     0.908887     0.201326    Uiso  ? H
   H24        1.0     0.164060     0.908887     0.344183    Uiso  ? H
   H24        1.0     0.164060     0.908887     0.487041    Uiso  ? H
   H24        1.0     0.164060     0.908887     0.629898    Uiso  ? H
   H24        1.0     0.164060     0.908887     0.772755    Uiso  ? H
   H24        1.0     0.164060     0.908887     0.915612    Uiso  ? H
   H24        1.0     0.497393     0.158887     0.058469    Uiso  ? H
   H24        1.0     0.497393     0.158887     0.201326    Uiso  ? H
   H24        1.0     0.497393     0.158887     0.344183    Uiso  ? H
   H24        1.0     0.497393     0.158887     0.487041    Uiso  ? H
   H24        1.0     0.497393     0.158887     0.629898    Uiso  ? H
   H24        1.0     0.497393     0.158887     0.772755    Uiso  ? H
   H24        1.0     0.497393     0.158887     0.915612    Uiso  ? H
   H24        1.0     0.497393     0.408887     0.058469    Uiso  ? H
   H24        1.0     0.497393     0.408887     0.201326    Uiso  ? H
   H24        1.0     0.497393     0.408887     0.344183    Uiso  ? H
   H24        1.0     0.497393     0.408887     0.487041    Uiso  ? H
   H24        1.0     0.497393     0.408887     0.629898    Uiso  ? H
   H24        1.0     0.497393     0.408887     0.772755    Uiso  ? H
   H24        1.0     0.497393     0.408887     0.915612    Uiso  ? H
   H24        1.0     0.497393     0.658887     0.058469    Uiso  ? H
   H24        1.0     0.497393     0.658887     0.201326    Uiso  ? H
   H24        1.0     0.497393     0.658887     0.344183    Uiso  ? H
   H24        1.0     0.497393     0.658887     0.487041    Uiso  ? H
   H24        1.0     0.497393     0.658887     0.629898    Uiso  ? H
   H24        1.0     0.497393     0.658887     0.772755    Uiso  ? H
   H24        1.0     0.497393     0.658887     0.915612    Uiso  ? H
   H24        1.0     0.497393     0.908887     0.058469    Uiso  ? H
   H24        1.0     0.497393     0.908887     0.201326    Uiso  ? H
   H24        1.0     0.497393     0.908887     0.344183    Uiso  ? H
   H24        1.0     0.497393     0.908887     0.487041    Uiso  ? H
   H24        1.0     0.497393     0.908887     0.629898    Uiso  ? H
   H24        1.0     0.497393     0.908887     0.772755    Uiso  ? H
   H24        1.0     0.497393     0.908887     0.915612    Uiso  ? H
   H24        1.0     0.830727     0.158887     0.058469    Uiso  ? H
   H24        1.0     0.830727     0.158887     0.201326    Uiso  ? H
   H24        1.0     0.830727     0.158887     0.344183    Uiso  ? H
   H24        1.0     0.830727     0.158887     0.487041    Uiso  ? H
   H24        1.0     0.830727     0.158887     0.629898    Uiso  ? H
   H24        1.0     0.830727     0.158887     0.772755    Uiso  ? H
   H24        1.0     0.830727     0.158887     0.915612    Uiso  ? H
   H24        1.0     0.830727     0.408887     0.058469    Uiso  ? H
   H24        1.0     0.830727     0.408887     0.201326    Uiso  ? H
   H24        1.0     0.830727     0.408887     0.344183    Uiso  ? H
   H24        1.0     0.830727     0.408887     0.487041    Uiso  ? H
   H24        1.0     0.830727     0.408887     0.629898    Uiso  ? H
   H24        1.0     0.830727     0.408887     0.772755    Uiso  ? H
   H24        1.0     0.830727     0.408887     0.915612    Uiso  ? H
   H24        1.0     0.830727     0.658887     0.058469    Uiso  ? H
   H24        1.0     0.830727     0.658887     0.201326    Uiso  ? H
   H24        1.0     0.830727     0.658887     0.344183    Uiso  ? H
   H24        1.0     0.830727     0.658887     0.487041    Uiso  ? H
   H24        1.0     0.830727     0.658887     0.629898    Uiso  ? H
   H24        1.0     0.830727     0.658887     0.772755    Uiso  ? H
   H24        1.0     0.830727     0.658887     0.915612    Uiso  ? H
   H24        1.0     0.830727     0.908887     0.058469    Uiso  ? H
   H24        1.0     0.830727     0.908887     0.201326    Uiso  ? H
   H24        1.0     0.830727     0.908887     0.344183    Uiso  ? H
   H24        1.0     0.830727     0.908887     0.487041    Uiso  ? H
   H24        1.0     0.830727     0.908887     0.629898    Uiso  ? H
   H24        1.0     0.830727     0.908887     0.772755    Uiso  ? H
   H24        1.0     0.830727     0.908887     0.915612    Uiso  ? H
   H25        1.0     0.019510     0.162741     0.048531    Uiso  ? H
   H25        1.0     0.019510     0.162741     0.191388    Uiso  ? H
   H25        1.0     0.019510     0.162741     0.334245    Uiso  ? H
   H25        1.0     0.019510     0.162741     0.477102    Uiso  ? H
   H25        1.0     0.019510     0.162741     0.619959    Uiso  ? H
   H25        1.0     0.019510     0.162741     0.762816    Uiso  ? H
   H25        1.0     0.019510     0.162741     0.905673    Uiso  ? H
   H25        1.0     0.019510     0.412741     0.048531    Uiso  ? H
   H25        1.0     0.019510     0.412741     0.191388    Uiso  ? H
   H25        1.0     0.019510     0.412741     0.334245    Uiso  ? H
   H25        1.0     0.019510     0.412741     0.477102    Uiso  ? H
   H25        1.0     0.019510     0.412741     0.619959    Uiso  ? H
   H25        1.0     0.019510     0.412741     0.762816    Uiso  ? H
   H25        1.0     0.019510     0.412741     0.905673    Uiso  ? H
   H25        1.0     0.019510     0.662741     0.048531    Uiso  ? H
   H25        1.0     0.019510     0.662741     0.191388    Uiso  ? H
   H25        1.0     0.019510     0.662741     0.334245    Uiso  ? H
   H25        1.0     0.019510     0.662741     0.477102    Uiso  ? H
   H25        1.0     0.019510     0.662741     0.619959    Uiso  ? H
   H25        1.0     0.019510     0.662741     0.762816    Uiso  ? H
   H25        1.0     0.019510     0.662741     0.905673    Uiso  ? H
   H25        1.0     0.019510     0.912741     0.048531    Uiso  ? H
   H25        1.0     0.019510     0.912741     0.191388    Uiso  ? H
   H25        1.0     0.019510     0.912741     0.334245    Uiso  ? H
   H25        1.0     0.019510     0.912741     0.477102    Uiso  ? H
   H25        1.0     0.019510     0.912741     0.619959    Uiso  ? H
   H25        1.0     0.019510     0.912741     0.762816    Uiso  ? H
   H25        1.0     0.019510     0.912741     0.905673    Uiso  ? H
   H25        1.0     0.352843     0.162741     0.048531    Uiso  ? H
   H25        1.0     0.352843     0.162741     0.191388    Uiso  ? H
   H25        1.0     0.352843     0.162741     0.334245    Uiso  ? H
   H25        1.0     0.352843     0.162741     0.477102    Uiso  ? H
   H25        1.0     0.352843     0.162741     0.619959    Uiso  ? H
   H25        1.0     0.352843     0.162741     0.762816    Uiso  ? H
   H25        1.0     0.352843     0.162741     0.905673    Uiso  ? H
   H25        1.0     0.352843     0.412741     0.048531    Uiso  ? H
   H25        1.0     0.352843     0.412741     0.191388    Uiso  ? H
   H25        1.0     0.352843     0.412741     0.334245    Uiso  ? H
   H25        1.0     0.352843     0.412741     0.477102    Uiso  ? H
   H25        1.0     0.352843     0.412741     0.619959    Uiso  ? H
   H25        1.0     0.352843     0.412741     0.762816    Uiso  ? H
   H25        1.0     0.352843     0.412741     0.905673    Uiso  ? H
   H25        1.0     0.352843     0.662741     0.048531    Uiso  ? H
   H25        1.0     0.352843     0.662741     0.191388    Uiso  ? H
   H25        1.0     0.352843     0.662741     0.334245    Uiso  ? H
   H25        1.0     0.352843     0.662741     0.477102    Uiso  ? H
   H25        1.0     0.352843     0.662741     0.619959    Uiso  ? H
   H25        1.0     0.352843     0.662741     0.762816    Uiso  ? H
   H25        1.0     0.352843     0.662741     0.905673    Uiso  ? H
   H25        1.0     0.352843     0.912741     0.048531    Uiso  ? H
   H25        1.0     0.352843     0.912741     0.191388    Uiso  ? H
   H25        1.0     0.352843     0.912741     0.334245    Uiso  ? H
   H25        1.0     0.352843     0.912741     0.477102    Uiso  ? H
   H25        1.0     0.352843     0.912741     0.619959    Uiso  ? H
   H25        1.0     0.352843     0.912741     0.762816    Uiso  ? H
   H25        1.0     0.352843     0.912741     0.905673    Uiso  ? H
   H25        1.0     0.686176     0.162741     0.048531    Uiso  ? H
   H25        1.0     0.686176     0.162741     0.191388    Uiso  ? H
   H25        1.0     0.686176     0.162741     0.334245    Uiso  ? H
   H25        1.0     0.686176     0.162741     0.477102    Uiso  ? H
   H25        1.0     0.686176     0.162741     0.619959    Uiso  ? H
   H25        1.0     0.686176     0.162741     0.762816    Uiso  ? H
   H25        1.0     0.686176     0.162741     0.905673    Uiso  ? H
   H25        1.0     0.686176     0.412741     0.048531    Uiso  ? H
   H25        1.0     0.686176     0.412741     0.191388    Uiso  ? H
   H25        1.0     0.686176     0.412741     0.334245    Uiso  ? H
   H25        1.0     0.686176     0.412741     0.477102    Uiso  ? H
   H25        1.0     0.686176     0.412741     0.619959    Uiso  ? H
   H25        1.0     0.686176     0.412741     0.762816    Uiso  ? H
   H25        1.0     0.686176     0.412741     0.905673    Uiso  ? H
   H25        1.0     0.686176     0.662741     0.048531    Uiso  ? H
   H25        1.0     0.686176     0.662741     0.191388    Uiso  ? H
   H25        1.0     0.686176     0.662741     0.334245    Uiso  ? H
   H25        1.0     0.686176     0.662741     0.477102    Uiso  ? H
   H25        1.0     0.686176     0.662741     0.619959    Uiso  ? H
   H25        1.0     0.686176     0.662741     0.762816    Uiso  ? H
   H25        1.0     0.686176     0.662741     0.905673    Uiso  ? H
   H25        1.0     0.686176     0.912741     0.048531    Uiso  ? H
   H25        1.0     0.686176     0.912741     0.191388    Uiso  ? H
   H25        1.0     0.686176     0.912741     0.334245    Uiso  ? H
   H25        1.0     0.686176     0.912741     0.477102    Uiso  ? H
   H25        1.0     0.686176     0.912741     0.619959    Uiso  ? H
   H25        1.0     0.686176     0.912741     0.762816    Uiso  ? H
   H25        1.0     0.686176     0.912741     0.905673    Uiso  ? H
   H26        1.0     0.015793     0.219838     0.047710    Uiso  ? H
   H26        1.0     0.015793     0.219838     0.190567    Uiso  ? H
   H26        1.0     0.015793     0.219838     0.333424    Uiso  ? H
   H26        1.0     0.015793     0.219838     0.476281    Uiso  ? H
   H26        1.0     0.015793     0.219838     0.619138    Uiso  ? H
   H26        1.0     0.015793     0.219838     0.761995    Uiso  ? H
   H26        1.0     0.015793     0.219838     0.904853    Uiso  ? H
   H26        1.0     0.015793     0.469838     0.047710    Uiso  ? H
   H26        1.0     0.015793     0.469838     0.190567    Uiso  ? H
   H26        1.0     0.015793     0.469838     0.333424    Uiso  ? H
   H26        1.0     0.015793     0.469838     0.476281    Uiso  ? H
   H26        1.0     0.015793     0.469838     0.619138    Uiso  ? H
   H26        1.0     0.015793     0.469838     0.761995    Uiso  ? H
   H26        1.0     0.015793     0.469838     0.904853    Uiso  ? H
   H26        1.0     0.015793     0.719838     0.047710    Uiso  ? H
   H26        1.0     0.015793     0.719838     0.190567    Uiso  ? H
   H26        1.0     0.015793     0.719838     0.333424    Uiso  ? H
   H26        1.0     0.015793     0.719838     0.476281    Uiso  ? H
   H26        1.0     0.015793     0.719838     0.619138    Uiso  ? H
   H26        1.0     0.015793     0.719838     0.761995    Uiso  ? H
   H26        1.0     0.015793     0.719838     0.904853    Uiso  ? H
   H26        1.0     0.015793     0.969838     0.047710    Uiso  ? H
   H26        1.0     0.015793     0.969838     0.190567    Uiso  ? H
   H26        1.0     0.015793     0.969838     0.333424    Uiso  ? H
   H26        1.0     0.015793     0.969838     0.476281    Uiso  ? H
   H26        1.0     0.015793     0.969838     0.619138    Uiso  ? H
   H26        1.0     0.015793     0.969838     0.761995    Uiso  ? H
   H26        1.0     0.015793     0.969838     0.904853    Uiso  ? H
   H26        1.0     0.349127     0.219838     0.047710    Uiso  ? H
   H26        1.0     0.349127     0.219838     0.190567    Uiso  ? H
   H26        1.0     0.349127     0.219838     0.333424    Uiso  ? H
   H26        1.0     0.349127     0.219838     0.476281    Uiso  ? H
   H26        1.0     0.349127     0.219838     0.619138    Uiso  ? H
   H26        1.0     0.349127     0.219838     0.761995    Uiso  ? H
   H26        1.0     0.349127     0.219838     0.904853    Uiso  ? H
   H26        1.0     0.349127     0.469838     0.047710    Uiso  ? H
   H26        1.0     0.349127     0.469838     0.190567    Uiso  ? H
   H26        1.0     0.349127     0.469838     0.333424    Uiso  ? H
   H26        1.0     0.349127     0.469838     0.476281    Uiso  ? H
   H26        1.0     0.349127     0.469838     0.619138    Uiso  ? H
   H26        1.0     0.349127     0.469838     0.761995    Uiso  ? H
   H26        1.0     0.349127     0.469838     0.904853    Uiso  ? H
   H26        1.0     0.349127     0.719838     0.047710    Uiso  ? H
   H26        1.0     0.349127     0.719838     0.190567    Uiso  ? H
   H26        1.0     0.349127     0.719838     0.333424    Uiso  ? H
   H26        1.0     0.349127     0.719838     0.476281    Uiso  ? H
   H26        1.0     0.349127     0.719838     0.619138    Uiso  ? H
   H26        1.0     0.349127     0.719838     0.761995    Uiso  ? H
   H26        1.0     0.349127     0.719838     0.904853    Uiso  ? H
   H26        1.0     0.349127     0.969838     0.047710    Uiso  ? H
   H26        1.0     0.349127     0.969838     0.190567    Uiso  ? H
   H26        1.0     0.349127     0.969838     0.333424    Uiso  ? H
   H26        1.0     0.349127     0.969838     0.476281    Uiso  ? H
   H26        1.0     0.349127     0.969838     0.619138    Uiso  ? H
   H26        1.0     0.349127     0.969838     0.761995    Uiso  ? H
   H26        1.0     0.349127     0.969838     0.904853    Uiso  ? H
   H26        1.0     0.682460     0.219838     0.047710    Uiso  ? H
   H26        1.0     0.682460     0.219838     0.190567    Uiso  ? H
   H26        1.0     0.682460     0.219838     0.333424    Uiso  ? H
   H26        1.0     0.682460     0.219838     0.476281    Uiso  ? H
   H26        1.0     0.682460     0.219838     0.619138    Uiso  ? H
   H26        1.0     0.682460     0.219838     0.761995    Uiso  ? H
   H26        1.0     0.682460     0.219838     0.904853    Uiso  ? H
   H26        1.0     0.682460     0.469838     0.047710    Uiso  ? H
   H26        1.0     0.682460     0.469838     0.190567    Uiso  ? H
   H26        1.0     0.682460     0.469838     0.333424    Uiso  ? H
   H26        1.0     0.682460     0.469838     0.476281    Uiso  ? H
   H26        1.0     0.682460     0.469838     0.619138    Uiso  ? H
   H26        1.0     0.682460     0.469838     0.761995    Uiso  ? H
   H26        1.0     0.682460     0.469838     0.904853    Uiso  ? H
   H26        1.0     0.682460     0.719838     0.047710    Uiso  ? H
   H26        1.0     0.682460     0.719838     0.190567    Uiso  ? H
   H26        1.0     0.682460     0.719838     0.333424    Uiso  ? H
   H26        1.0     0.682460     0.719838     0.476281    Uiso  ? H
   H26        1.0     0.682460     0.719838     0.619138    Uiso  ? H
   H26        1.0     0.682460     0.719838     0.761995    Uiso  ? H
   H26        1.0     0.682460     0.719838     0.904853    Uiso  ? H
   H26        1.0     0.682460     0.969838     0.047710    Uiso  ? H
   H26        1.0     0.682460     0.969838     0.190567    Uiso  ? H
   H26        1.0     0.682460     0.969838     0.333424    Uiso  ? H
   H26        1.0     0.682460     0.969838     0.476281    Uiso  ? H
   H26        1.0     0.682460     0.969838     0.619138    Uiso  ? H
   H26        1.0     0.682460     0.969838     0.761995    Uiso  ? H
   H26        1.0     0.682460     0.969838     0.904853    Uiso  ? H
   H27        1.0     0.050757     0.063533     0.034768    Uiso  ? H
   H27        1.0     0.050757     0.063533     0.177625    Uiso  ? H
   H27        1.0     0.050757     0.063533     0.320482    Uiso  ? H
   H27        1.0     0.050757     0.063533     0.463339    Uiso  ? H
   H27        1.0     0.050757     0.063533     0.606196    Uiso  ? H
   H27        1.0     0.050757     0.063533     0.749053    Uiso  ? H
   H27        1.0     0.050757     0.063533     0.891911    Uiso  ? H
   H27        1.0     0.050757     0.313533     0.034768    Uiso  ? H
   H27        1.0     0.050757     0.313533     0.177625    Uiso  ? H
   H27        1.0     0.050757     0.313533     0.320482    Uiso  ? H
   H27        1.0     0.050757     0.313533     0.463339    Uiso  ? H
   H27        1.0     0.050757     0.313533     0.606196    Uiso  ? H
   H27        1.0     0.050757     0.313533     0.749053    Uiso  ? H
   H27        1.0     0.050757     0.313533     0.891911    Uiso  ? H
   H27        1.0     0.050757     0.563533     0.034768    Uiso  ? H
   H27        1.0     0.050757     0.563533     0.177625    Uiso  ? H
   H27        1.0     0.050757     0.563533     0.320482    Uiso  ? H
   H27        1.0     0.050757     0.563533     0.463339    Uiso  ? H
   H27        1.0     0.050757     0.563533     0.606196    Uiso  ? H
   H27        1.0     0.050757     0.563533     0.749053    Uiso  ? H
   H27        1.0     0.050757     0.563533     0.891911    Uiso  ? H
   H27        1.0     0.050757     0.813533     0.034768    Uiso  ? H
   H27        1.0     0.050757     0.813533     0.177625    Uiso  ? H
   H27        1.0     0.050757     0.813533     0.320482    Uiso  ? H
   H27        1.0     0.050757     0.813533     0.463339    Uiso  ? H
   H27        1.0     0.050757     0.813533     0.606196    Uiso  ? H
   H27        1.0     0.050757     0.813533     0.749053    Uiso  ? H
   H27        1.0     0.050757     0.813533     0.891911    Uiso  ? H
   H27        1.0     0.384091     0.063533     0.034768    Uiso  ? H
   H27        1.0     0.384091     0.063533     0.177625    Uiso  ? H
   H27        1.0     0.384091     0.063533     0.320482    Uiso  ? H
   H27        1.0     0.384091     0.063533     0.463339    Uiso  ? H
   H27        1.0     0.384091     0.063533     0.606196    Uiso  ? H
   H27        1.0     0.384091     0.063533     0.749053    Uiso  ? H
   H27        1.0     0.384091     0.063533     0.891911    Uiso  ? H
   H27        1.0     0.384091     0.313533     0.034768    Uiso  ? H
   H27        1.0     0.384091     0.313533     0.177625    Uiso  ? H
   H27        1.0     0.384091     0.313533     0.320482    Uiso  ? H
   H27        1.0     0.384091     0.313533     0.463339    Uiso  ? H
   H27        1.0     0.384091     0.313533     0.606196    Uiso  ? H
   H27        1.0     0.384091     0.313533     0.749053    Uiso  ? H
   H27        1.0     0.384091     0.313533     0.891911    Uiso  ? H
   H27        1.0     0.384091     0.563533     0.034768    Uiso  ? H
   H27        1.0     0.384091     0.563533     0.177625    Uiso  ? H
   H27        1.0     0.384091     0.563533     0.320482    Uiso  ? H
   H27        1.0     0.384091     0.563533     0.463339    Uiso  ? H
   H27        1.0     0.384091     0.563533     0.606196    Uiso  ? H
   H27        1.0     0.384091     0.563533     0.749053    Uiso  ? H
   H27        1.0     0.384091     0.563533     0.891911    Uiso  ? H
   H27        1.0     0.384091     0.813533     0.034768    Uiso  ? H
   H27        1.0     0.384091     0.813533     0.177625    Uiso  ? H
   H27        1.0     0.384091     0.813533     0.320482    Uiso  ? H
   H27        1.0     0.384091     0.813533     0.463339    Uiso  ? H
   H27        1.0     0.384091     0.813533     0.606196    Uiso  ? H
   H27        1.0     0.384091     0.813533     0.749053    Uiso  ? H
   H27        1.0     0.384091     0.813533     0.891911    Uiso  ? H
   H27        1.0     0.717424     0.063533     0.034768    Uiso  ? H
   H27        1.0     0.717424     0.063533     0.177625    Uiso  ? H
   H27        1.0     0.717424     0.063533     0.320482    Uiso  ? H
   H27        1.0     0.717424     0.063533     0.463339    Uiso  ? H
   H27        1.0     0.717424     0.063533     0.606196    Uiso  ? H
   H27        1.0     0.717424     0.063533     0.749053    Uiso  ? H
   H27        1.0     0.717424     0.063533     0.891911    Uiso  ? H
   H27        1.0     0.717424     0.313533     0.034768    Uiso  ? H
   H27        1.0     0.717424     0.313533     0.177625    Uiso  ? H
   H27        1.0     0.717424     0.313533     0.320482    Uiso  ? H
   H27        1.0     0.717424     0.313533     0.463339    Uiso  ? H
   H27        1.0     0.717424     0.313533     0.606196    Uiso  ? H
   H27        1.0     0.717424     0.313533     0.749053    Uiso  ? H
   H27        1.0     0.717424     0.313533     0.891911    Uiso  ? H
   H27        1.0     0.717424     0.563533     0.034768    Uiso  ? H
   H27        1.0     0.717424     0.563533     0.177625    Uiso  ? H
   H27        1.0     0.717424     0.563533     0.320482    Uiso  ? H
   H27        1.0     0.717424     0.563533     0.463339    Uiso  ? H
   H27        1.0     0.717424     0.563533     0.606196    Uiso  ? H
   H27        1.0     0.717424     0.563533     0.749053    Uiso  ? H
   H27        1.0     0.717424     0.563533     0.891911    Uiso  ? H
   H27        1.0     0.717424     0.813533     0.034768    Uiso  ? H
   H27        1.0     0.717424     0.813533     0.177625    Uiso  ? H
   H27        1.0     0.717424     0.813533     0.320482    Uiso  ? H
   H27        1.0     0.717424     0.813533     0.463339    Uiso  ? H
   H27        1.0     0.717424     0.813533     0.606196    Uiso  ? H
   H27        1.0     0.717424     0.813533     0.749053    Uiso  ? H
   H27        1.0     0.717424     0.813533     0.891911    Uiso  ? H
   H28        1.0     0.217408     0.187112     0.034387    Uiso  ? H
   H28        1.0     0.217408     0.187112     0.177244    Uiso  ? H
   H28        1.0     0.217408     0.187112     0.320101    Uiso  ? H
   H28        1.0     0.217408     0.187112     0.462958    Uiso  ? H
   H28        1.0     0.217408     0.187112     0.605815    Uiso  ? H
   H28        1.0     0.217408     0.187112     0.748672    Uiso  ? H
   H28        1.0     0.217408     0.187112     0.891530    Uiso  ? H
   H28        1.0     0.217408     0.437112     0.034387    Uiso  ? H
   H28        1.0     0.217408     0.437112     0.177244    Uiso  ? H
   H28        1.0     0.217408     0.437112     0.320101    Uiso  ? H
   H28        1.0     0.217408     0.437112     0.462958    Uiso  ? H
   H28        1.0     0.217408     0.437112     0.605815    Uiso  ? H
   H28        1.0     0.217408     0.437112     0.748672    Uiso  ? H
   H28        1.0     0.217408     0.437112     0.891530    Uiso  ? H
   H28        1.0     0.217408     0.687112     0.034387    Uiso  ? H
   H28        1.0     0.217408     0.687112     0.177244    Uiso  ? H
   H28        1.0     0.217408     0.687112     0.320101    Uiso  ? H
   H28        1.0     0.217408     0.687112     0.462958    Uiso  ? H
   H28        1.0     0.217408     0.687112     0.605815    Uiso  ? H
   H28        1.0     0.217408     0.687112     0.748672    Uiso  ? H
   H28        1.0     0.217408     0.687112     0.891530    Uiso  ? H
   H28        1.0     0.217408     0.937112     0.034387    Uiso  ? H
   H28        1.0     0.217408     0.937112     0.177244    Uiso  ? H
   H28        1.0     0.217408     0.937112     0.320101    Uiso  ? H
   H28        1.0     0.217408     0.937112     0.462958    Uiso  ? H
   H28        1.0     0.217408     0.937112     0.605815    Uiso  ? H
   H28        1.0     0.217408     0.937112     0.748672    Uiso  ? H
   H28        1.0     0.217408     0.937112     0.891530    Uiso  ? H
   H28        1.0     0.550741     0.187112     0.034387    Uiso  ? H
   H28        1.0     0.550741     0.187112     0.177244    Uiso  ? H
   H28        1.0     0.550741     0.187112     0.320101    Uiso  ? H
   H28        1.0     0.550741     0.187112     0.462958    Uiso  ? H
   H28        1.0     0.550741     0.187112     0.605815    Uiso  ? H
   H28        1.0     0.550741     0.187112     0.748672    Uiso  ? H
   H28        1.0     0.550741     0.187112     0.891530    Uiso  ? H
   H28        1.0     0.550741     0.437112     0.034387    Uiso  ? H
   H28        1.0     0.550741     0.437112     0.177244    Uiso  ? H
   H28        1.0     0.550741     0.437112     0.320101    Uiso  ? H
   H28        1.0     0.550741     0.437112     0.462958    Uiso  ? H
   H28        1.0     0.550741     0.437112     0.605815    Uiso  ? H
   H28        1.0     0.550741     0.437112     0.748672    Uiso  ? H
   H28        1.0     0.550741     0.437112     0.891530    Uiso  ? H
   H28        1.0     0.550741     0.687112     0.034387    Uiso  ? H
   H28        1.0     0.550741     0.687112     0.177244    Uiso  ? H
   H28        1.0     0.550741     0.687112     0.320101    Uiso  ? H
   H28        1.0     0.550741     0.687112     0.462958    Uiso  ? H
   H28        1.0     0.550741     0.687112     0.605815    Uiso  ? H
   H28        1.0     0.550741     0.687112     0.748672    Uiso  ? H
   H28        1.0     0.550741     0.687112     0.891530    Uiso  ? H
   H28        1.0     0.550741     0.937112     0.034387    Uiso  ? H
   H28        1.0     0.550741     0.937112     0.177244    Uiso  ? H
   H28        1.0     0.550741     0.937112     0.320101    Uiso  ? H
   H28        1.0     0.550741     0.937112     0.462958    Uiso  ? H
   H28        1.0     0.550741     0.937112     0.605815    Uiso  ? H
   H28        1.0     0.550741     0.937112     0.748672    Uiso  ? H
   H28        1.0     0.550741     0.937112     0.891530    Uiso  ? H
   H28        1.0     0.884075     0.187112     0.034387    Uiso  ? H
   H28        1.0     0.884075     0.187112     0.177244    Uiso  ? H
   H28        1.0     0.884075     0.187112     0.320101    Uiso  ? H
   H28        1.0     0.884075     0.187112     0.462958    Uiso  ? H
   H28        1.0     0.884075     0.187112     0.605815    Uiso  ? H
   H28        1.0     0.884075     0.187112     0.748672    Uiso  ? H
   H28        1.0     0.884075     0.187112     0.891530    Uiso  ? H
   H28        1.0     0.884075     0.437112     0.034387    Uiso  ? H
   H28        1.0     0.884075     0.437112     0.177244    Uiso  ? H
   H28        1.0     0.884075     0.437112     0.320101    Uiso  ? H
   H28        1.0     0.884075     0.437112     0.462958    Uiso  ? H
   H28        1.0     0.884075     0.437112     0.605815    Uiso  ? H
   H28        1.0     0.884075     0.437112     0.748672    Uiso  ? H
   H28        1.0     0.884075     0.437112     0.891530    Uiso  ? H
   H28        1.0     0.884075     0.687112     0.034387    Uiso  ? H
   H28        1.0     0.884075     0.687112     0.177244    Uiso  ? H
   H28        1.0     0.884075     0.687112     0.320101    Uiso  ? H
   H28        1.0     0.884075     0.687112     0.462958    Uiso  ? H
   H28        1.0     0.884075     0.687112     0.605815    Uiso  ? H
   H28        1.0     0.884075     0.687112     0.748672    Uiso  ? H
   H28        1.0     0.884075     0.687112     0.891530    Uiso  ? H
   H28        1.0     0.884075     0.937112     0.034387    Uiso  ? H
   H28        1.0     0.884075     0.937112     0.177244    Uiso  ? H
   H28        1.0     0.884075     0.937112     0.320101    Uiso  ? H
   H28        1.0     0.884075     0.937112     0.462958    Uiso  ? H
   H28        1.0     0.884075     0.937112     0.605815    Uiso  ? H
   H28        1.0     0.884075     0.937112     0.748672    Uiso  ? H
   H28        1.0     0.884075     0.937112     0.891530    Uiso  ? H
   H29        1.0     0.180118     0.094289     0.021450    Uiso  ? H
   H29        1.0     0.180118     0.094289     0.164307    Uiso  ? H
   H29        1.0     0.180118     0.094289     0.307164    Uiso  ? H
   H29        1.0     0.180118     0.094289     0.450022    Uiso  ? H
   H29        1.0     0.180118     0.094289     0.592879    Uiso  ? H
   H29        1.0     0.180118     0.094289     0.735736    Uiso  ? H
   H29        1.0     0.180118     0.094289     0.878593    Uiso  ? H
   H29        1.0     0.180118     0.344289     0.021450    Uiso  ? H
   H29        1.0     0.180118     0.344289     0.164307    Uiso  ? H
   H29        1.0     0.180118     0.344289     0.307164    Uiso  ? H
   H29        1.0     0.180118     0.344289     0.450022    Uiso  ? H
   H29        1.0     0.180118     0.344289     0.592879    Uiso  ? H
   H29        1.0     0.180118     0.344289     0.735736    Uiso  ? H
   H29        1.0     0.180118     0.344289     0.878593    Uiso  ? H
   H29        1.0     0.180118     0.594289     0.021450    Uiso  ? H
   H29        1.0     0.180118     0.594289     0.164307    Uiso  ? H
   H29        1.0     0.180118     0.594289     0.307164    Uiso  ? H
   H29        1.0     0.180118     0.594289     0.450022    Uiso  ? H
   H29        1.0     0.180118     0.594289     0.592879    Uiso  ? H
   H29        1.0     0.180118     0.594289     0.735736    Uiso  ? H
   H29        1.0     0.180118     0.594289     0.878593    Uiso  ? H
   H29        1.0     0.180118     0.844289     0.021450    Uiso  ? H
   H29        1.0     0.180118     0.844289     0.164307    Uiso  ? H
   H29        1.0     0.180118     0.844289     0.307164    Uiso  ? H
   H29        1.0     0.180118     0.844289     0.450022    Uiso  ? H
   H29        1.0     0.180118     0.844289     0.592879    Uiso  ? H
   H29        1.0     0.180118     0.844289     0.735736    Uiso  ? H
   H29        1.0     0.180118     0.844289     0.878593    Uiso  ? H
   H29        1.0     0.513451     0.094289     0.021450    Uiso  ? H
   H29        1.0     0.513451     0.094289     0.164307    Uiso  ? H
   H29        1.0     0.513451     0.094289     0.307164    Uiso  ? H
   H29        1.0     0.513451     0.094289     0.450022    Uiso  ? H
   H29        1.0     0.513451     0.094289     0.592879    Uiso  ? H
   H29        1.0     0.513451     0.094289     0.735736    Uiso  ? H
   H29        1.0     0.513451     0.094289     0.878593    Uiso  ? H
   H29        1.0     0.513451     0.344289     0.021450    Uiso  ? H
   H29        1.0     0.513451     0.344289     0.164307    Uiso  ? H
   H29        1.0     0.513451     0.344289     0.307164    Uiso  ? H
   H29        1.0     0.513451     0.344289     0.450022    Uiso  ? H
   H29        1.0     0.513451     0.344289     0.592879    Uiso  ? H
   H29        1.0     0.513451     0.344289     0.735736    Uiso  ? H
   H29        1.0     0.513451     0.344289     0.878593    Uiso  ? H
   H29        1.0     0.513451     0.594289     0.021450    Uiso  ? H
   H29        1.0     0.513451     0.594289     0.164307    Uiso  ? H
   H29        1.0     0.513451     0.594289     0.307164    Uiso  ? H
   H29        1.0     0.513451     0.594289     0.450022    Uiso  ? H
   H29        1.0     0.513451     0.594289     0.592879    Uiso  ? H
   H29        1.0     0.513451     0.594289     0.735736    Uiso  ? H
   H29        1.0     0.513451     0.594289     0.878593    Uiso  ? H
   H29        1.0     0.513451     0.844289     0.021450    Uiso  ? H
   H29        1.0     0.513451     0.844289     0.164307    Uiso  ? H
   H29        1.0     0.513451     0.844289     0.307164    Uiso  ? H
   H29        1.0     0.513451     0.844289     0.450022    Uiso  ? H
   H29        1.0     0.513451     0.844289     0.592879    Uiso  ? H
   H29        1.0     0.513451     0.844289     0.735736    Uiso  ? H
   H29        1.0     0.513451     0.844289     0.878593    Uiso  ? H
   H29        1.0     0.846785     0.094289     0.021450    Uiso  ? H
   H29        1.0     0.846785     0.094289     0.164307    Uiso  ? H
   H29        1.0     0.846785     0.094289     0.307164    Uiso  ? H
   H29        1.0     0.846785     0.094289     0.450022    Uiso  ? H
   H29        1.0     0.846785     0.094289     0.592879    Uiso  ? H
   H29        1.0     0.846785     0.094289     0.735736    Uiso  ? H
   H29        1.0     0.846785     0.094289     0.878593    Uiso  ? H
   H29        1.0     0.846785     0.344289     0.021450    Uiso  ? H
   H29        1.0     0.846785     0.344289     0.164307    Uiso  ? H
   H29        1.0     0.846785     0.344289     0.307164    Uiso  ? H
   H29        1.0     0.846785     0.344289     0.450022    Uiso  ? H
   H29        1.0     0.846785     0.344289     0.592879    Uiso  ? H
   H29        1.0     0.846785     0.344289     0.735736    Uiso  ? H
   H29        1.0     0.846785     0.344289     0.878593    Uiso  ? H
   H29        1.0     0.846785     0.594289     0.021450    Uiso  ? H
   H29        1.0     0.846785     0.594289     0.164307    Uiso  ? H
   H29        1.0     0.846785     0.594289     0.307164    Uiso  ? H
   H29        1.0     0.846785     0.594289     0.450022    Uiso  ? H
   H29        1.0     0.846785     0.594289     0.592879    Uiso  ? H
   H29        1.0     0.846785     0.594289     0.735736    Uiso  ? H
   H29        1.0     0.846785     0.594289     0.878593    Uiso  ? H
   H29        1.0     0.846785     0.844289     0.021450    Uiso  ? H
   H29        1.0     0.846785     0.844289     0.164307    Uiso  ? H
   H29        1.0     0.846785     0.844289     0.307164    Uiso  ? H
   H29        1.0     0.846785     0.844289     0.450022    Uiso  ? H
   H29        1.0     0.846785     0.844289     0.592879    Uiso  ? H
   H29        1.0     0.846785     0.844289     0.735736    Uiso  ? H
   H29        1.0     0.846785     0.844289     0.878593    Uiso  ? H
   H30        1.0     0.185421     0.034543     0.021170    Uiso  ? H
   H30        1.0     0.185421     0.034543     0.164027    Uiso  ? H
   H30        1.0     0.185421     0.034543     0.306884    Uiso  ? H
   H30        1.0     0.185421     0.034543     0.449741    Uiso  ? H
   H30        1.0     0.185421     0.034543     0.592598    Uiso  ? H
   H30        1.0     0.185421     0.034543     0.735456    Uiso  ? H
   H30        1.0     0.185421     0.034543     0.878313    Uiso  ? H
   H30        1.0     0.185421     0.284543     0.021170    Uiso  ? H
   H30        1.0     0.185421     0.284543     0.164027    Uiso  ? H
   H30        1.0     0.185421     0.284543     0.306884    Uiso  ? H
   H30        1.0     0.185421     0.284543     0.449741    Uiso  ? H
   H30        1.0     0.185421     0.284543     0.592598    Uiso  ? H
   H30        1.0     0.185421     0.284543     0.735456    Uiso  ? H
   H30        1.0     0.185421     0.284543     0.878313    Uiso  ? H
   H30        1.0     0.185421     0.534543     0.021170    Uiso  ? H
   H30        1.0     0.185421     0.534543     0.164027    Uiso  ? H
   H30        1.0     0.185421     0.534543     0.306884    Uiso  ? H
   H30        1.0     0.185421     0.534543     0.449741    Uiso  ? H
   H30        1.0     0.185421     0.534543     0.592598    Uiso  ? H
   H30        1.0     0.185421     0.534543     0.735456    Uiso  ? H
   H30        1.0     0.185421     0.534543     0.878313    Uiso  ? H
   H30        1.0     0.185421     0.784543     0.021170    Uiso  ? H
   H30        1.0     0.185421     0.784543     0.164027    Uiso  ? H
   H30        1.0     0.185421     0.784543     0.306884    Uiso  ? H
   H30        1.0     0.185421     0.784543     0.449741    Uiso  ? H
   H30        1.0     0.185421     0.784543     0.592598    Uiso  ? H
   H30        1.0     0.185421     0.784543     0.735456    Uiso  ? H
   H30        1.0     0.185421     0.784543     0.878313    Uiso  ? H
   H30        1.0     0.518755     0.034543     0.021170    Uiso  ? H
   H30        1.0     0.518755     0.034543     0.164027    Uiso  ? H
   H30        1.0     0.518755     0.034543     0.306884    Uiso  ? H
   H30        1.0     0.518755     0.034543     0.449741    Uiso  ? H
   H30        1.0     0.518755     0.034543     0.592598    Uiso  ? H
   H30        1.0     0.518755     0.034543     0.735456    Uiso  ? H
   H30        1.0     0.518755     0.034543     0.878313    Uiso  ? H
   H30        1.0     0.518755     0.284543     0.021170    Uiso  ? H
   H30        1.0     0.518755     0.284543     0.164027    Uiso  ? H
   H30        1.0     0.518755     0.284543     0.306884    Uiso  ? H
   H30        1.0     0.518755     0.284543     0.449741    Uiso  ? H
   H30        1.0     0.518755     0.284543     0.592598    Uiso  ? H
   H30        1.0     0.518755     0.284543     0.735456    Uiso  ? H
   H30        1.0     0.518755     0.284543     0.878313    Uiso  ? H
   H30        1.0     0.518755     0.534543     0.021170    Uiso  ? H
   H30        1.0     0.518755     0.534543     0.164027    Uiso  ? H
   H30        1.0     0.518755     0.534543     0.306884    Uiso  ? H
   H30        1.0     0.518755     0.534543     0.449741    Uiso  ? H
   H30        1.0     0.518755     0.534543     0.592598    Uiso  ? H
   H30        1.0     0.518755     0.534543     0.735456    Uiso  ? H
   H30        1.0     0.518755     0.534543     0.878313    Uiso  ? H
   H30        1.0     0.518755     0.784543     0.021170    Uiso  ? H
   H30        1.0     0.518755     0.784543     0.164027    Uiso  ? H
   H30        1.0     0.518755     0.784543     0.306884    Uiso  ? H
   H30        1.0     0.518755     0.784543     0.449741    Uiso  ? H
   H30        1.0     0.518755     0.784543     0.592598    Uiso  ? H
   H30        1.0     0.518755     0.784543     0.735456    Uiso  ? H
   H30        1.0     0.518755     0.784543     0.878313    Uiso  ? H
   H30        1.0     0.852088     0.034543     0.021170    Uiso  ? H
   H30        1.0     0.852088     0.034543     0.164027    Uiso  ? H
   H30        1.0     0.852088     0.034543     0.306884    Uiso  ? H
   H30        1.0     0.852088     0.034543     0.449741    Uiso  ? H
   H30        1.0     0.852088     0.034543     0.592598    Uiso  ? H
   H30        1.0     0.852088     0.034543     0.735456    Uiso  ? H
   H30        1.0     0.852088     0.034543     0.878313    Uiso  ? H
   H30        1.0     0.852088     0.284543     0.021170    Uiso  ? H
   H30        1.0     0.852088     0.284543     0.164027    Uiso  ? H
   H30        1.0     0.852088     0.284543     0.306884    Uiso  ? H
   H30        1.0     0.852088     0.284543     0.449741    Uiso  ? H
   H30        1.0     0.852088     0.284543     0.592598    Uiso  ? H
   H30        1.0     0.852088     0.284543     0.735456    Uiso  ? H
   H30        1.0     0.852088     0.284543     0.878313    Uiso  ? H
   H30        1.0     0.852088     0.534543     0.021170    Uiso  ? H
   H30        1.0     0.852088     0.534543     0.164027    Uiso  ? H
   H30        1.0     0.852088     0.534543     0.306884    Uiso  ? H
   H30        1.0     0.852088     0.534543     0.449741    Uiso  ? H
   H30        1.0     0.852088     0.534543     0.592598    Uiso  ? H
   H30        1.0     0.852088     0.534543     0.735456    Uiso  ? H
   H30        1.0     0.852088     0.534543     0.878313    Uiso  ? H
   H30        1.0     0.852088     0.784543     0.021170    Uiso  ? H
   H30        1.0     0.852088     0.784543     0.164027    Uiso  ? H
   H30        1.0     0.852088     0.784543     0.306884    Uiso  ? H
   H30        1.0     0.852088     0.784543     0.449741    Uiso  ? H
   H30        1.0     0.852088     0.784543     0.592598    Uiso  ? H
   H30        1.0     0.852088     0.784543     0.735456    Uiso  ? H
   H30        1.0     0.852088     0.784543     0.878313    Uiso  ? H
   H31        1.0     0.329622     0.031050     0.009958    Uiso  ? H
   H31        1.0     0.329622     0.031050     0.152815    Uiso  ? H
   H31        1.0     0.329622     0.031050     0.295672    Uiso  ? H
   H31        1.0     0.329622     0.031050     0.438529    Uiso  ? H
   H31        1.0     0.329622     0.031050     0.581386    Uiso  ? H
   H31        1.0     0.329622     0.031050     0.724243    Uiso  ? H
   H31        1.0     0.329622     0.031050     0.867101    Uiso  ? H
   H31        1.0     0.329622     0.281050     0.009958    Uiso  ? H
   H31        1.0     0.329622     0.281050     0.152815    Uiso  ? H
   H31        1.0     0.329622     0.281050     0.295672    Uiso  ? H
   H31        1.0     0.329622     0.281050     0.438529    Uiso  ? H
   H31        1.0     0.329622     0.281050     0.581386    Uiso  ? H
   H31        1.0     0.329622     0.281050     0.724243    Uiso  ? H
   H31        1.0     0.329622     0.281050     0.867101    Uiso  ? H
   H31        1.0     0.329622     0.531050     0.009958    Uiso  ? H
   H31        1.0     0.329622     0.531050     0.152815    Uiso  ? H
   H31        1.0     0.329622     0.531050     0.295672    Uiso  ? H
   H31        1.0     0.329622     0.531050     0.438529    Uiso  ? H
   H31        1.0     0.329622     0.531050     0.581386    Uiso  ? H
   H31        1.0     0.329622     0.531050     0.724243    Uiso  ? H
   H31        1.0     0.329622     0.531050     0.867101    Uiso  ? H
   H31        1.0     0.329622     0.781050     0.009958    Uiso  ? H
   H31        1.0     0.329622     0.781050     0.152815    Uiso  ? H
   H31        1.0     0.329622     0.781050     0.295672    Uiso  ? H
   H31        1.0     0.329622     0.781050     0.438529    Uiso  ? H
   H31        1.0     0.329622     0.781050     0.581386    Uiso  ? H
   H31        1.0     0.329622     0.781050     0.724243    Uiso  ? H
   H31        1.0     0.329622     0.781050     0.867101    Uiso  ? H
   H31        1.0     0.662955     0.031050     0.009958    Uiso  ? H
   H31        1.0     0.662955     0.031050     0.152815    Uiso  ? H
   H31        1.0     0.662955     0.031050     0.295672    Uiso  ? H
   H31        1.0     0.662955     0.031050     0.438529    Uiso  ? H
   H31        1.0     0.662955     0.031050     0.581386    Uiso  ? H
   H31        1.0     0.662955     0.031050     0.724243    Uiso  ? H
   H31        1.0     0.662955     0.031050     0.867101    Uiso  ? H
   H31        1.0     0.662955     0.281050     0.009958    Uiso  ? H
   H31        1.0     0.662955     0.281050     0.152815    Uiso  ? H
   H31        1.0     0.662955     0.281050     0.295672    Uiso  ? H
   H31        1.0     0.662955     0.281050     0.438529    Uiso  ? H
   H31        1.0     0.662955     0.281050     0.581386    Uiso  ? H
   H31        1.0     0.662955     0.281050     0.724243    Uiso  ? H
   H31        1.0     0.662955     0.281050     0.867101    Uiso  ? H
   H31        1.0     0.662955     0.531050     0.009958    Uiso  ? H
   H31        1.0     0.662955     0.531050     0.152815    Uiso  ? H
   H31        1.0     0.662955     0.531050     0.295672    Uiso  ? H
   H31        1.0     0.662955     0.531050     0.438529    Uiso  ? H
   H31        1.0     0.662955     0.531050     0.581386    Uiso  ? H
   H31        1.0     0.662955     0.531050     0.724243    Uiso  ? H
   H31        1.0     0.662955     0.531050     0.867101    Uiso  ? H
   H31        1.0     0.662955     0.781050     0.009958    Uiso  ? H
   H31        1.0     0.662955     0.781050     0.152815    Uiso  ? H
   H31        1.0     0.662955     0.781050     0.295672    Uiso  ? H
   H31        1.0     0.662955     0.781050     0.438529    Uiso  ? H
   H31        1.0     0.662955     0.781050     0.581386    Uiso  ? H
   H31        1.0     0.662955     0.781050     0.724243    Uiso  ? H
   H31        1.0     0.662955     0.781050     0.867101    Uiso  ? H
   H31        1.0     0.996289     0.031050     0.009958    Uiso  ? H
   H31        1.0     0.996289     0.031050     0.152815    Uiso  ? H
   H31        1.0     0.996289     0.031050     0.295672    Uiso  ? H
   H31        1.0     0.996289     0.031050     0.438529    Uiso  ? H
   H31        1.0     0.996289     0.031050     0.581386    Uiso  ? H
   H31        1.0     0.996289     0.031050     0.724243    Uiso  ? H
   H31        1.0     0.996289     0.031050     0.867101    Uiso  ? H
   H31        1.0     0.996289     0.281050     0.009958    Uiso  ? H
   H31        1.0     0.996289     0.281050     0.152815    Uiso  ? H
   H31        1.0     0.996289     0.281050     0.295672    Uiso  ? H
   H31        1.0     0.996289     0.281050     0.438529    Uiso  ? H
   H31        1.0     0.996289     0.281050     0.581386    Uiso  ? H
   H31        1.0     0.996289     0.281050     0.724243    Uiso  ? H
   H31        1.0     0.996289     0.281050     0.867101    Uiso  ? H
   H31        1.0     0.996289     0.531050     0.009958    Uiso  ? H
   H31        1.0     0.996289     0.531050     0.152815    Uiso  ? H
   H31        1.0     0.996289     0.531050     0.295672    Uiso  ? H
   H31        1.0     0.996289     0.531050     0.438529    Uiso  ? H
   H31        1.0     0.996289     0.531050     0.581386    Uiso  ? H
   H31        1.0     0.996289     0.531050     0.724243    Uiso  ? H
   H31        1.0     0.996289     0.531050     0.867101    Uiso  ? H
   H31        1.0     0.996289     0.781050     0.009958    Uiso  ? H
   H31        1.0     0.996289     0.781050     0.152815    Uiso  ? H
   H31        1.0     0.996289     0.781050     0.295672    Uiso  ? H
   H31        1.0     0.996289     0.781050     0.438529    Uiso  ? H
   H31        1.0     0.996289     0.781050     0.581386    Uiso  ? H
   H31        1.0     0.996289     0.781050     0.724243    Uiso  ? H
   H31        1.0     0.996289     0.781050     0.867101    Uiso  ? H
   H32        1.0     0.211851     0.998199     0.014167    Uiso  ? H
   H32        1.0     0.211851     0.998199     0.157024    Uiso  ? H
   H32        1.0     0.211851     0.998199     0.299881    Uiso  ? H
   H32        1.0     0.211851     0.998199     0.442738    Uiso  ? H
   H32        1.0     0.211851     0.998199     0.585595    Uiso  ? H
   H32        1.0     0.211851     0.998199     0.728452    Uiso  ? H
   H32        1.0     0.211851     0.998199     0.871309    Uiso  ? H
   H32        1.0     0.211851     0.248199     0.014167    Uiso  ? H
   H32        1.0     0.211851     0.248199     0.157024    Uiso  ? H
   H32        1.0     0.211851     0.248199     0.299881    Uiso  ? H
   H32        1.0     0.211851     0.248199     0.442738    Uiso  ? H
   H32        1.0     0.211851     0.248199     0.585595    Uiso  ? H
   H32        1.0     0.211851     0.248199     0.728452    Uiso  ? H
   H32        1.0     0.211851     0.248199     0.871309    Uiso  ? H
   H32        1.0     0.211851     0.498199     0.014167    Uiso  ? H
   H32        1.0     0.211851     0.498199     0.157024    Uiso  ? H
   H32        1.0     0.211851     0.498199     0.299881    Uiso  ? H
   H32        1.0     0.211851     0.498199     0.442738    Uiso  ? H
   H32        1.0     0.211851     0.498199     0.585595    Uiso  ? H
   H32        1.0     0.211851     0.498199     0.728452    Uiso  ? H
   H32        1.0     0.211851     0.498199     0.871309    Uiso  ? H
   H32        1.0     0.211851     0.748199     0.014167    Uiso  ? H
   H32        1.0     0.211851     0.748199     0.157024    Uiso  ? H
   H32        1.0     0.211851     0.748199     0.299881    Uiso  ? H
   H32        1.0     0.211851     0.748199     0.442738    Uiso  ? H
   H32        1.0     0.211851     0.748199     0.585595    Uiso  ? H
   H32        1.0     0.211851     0.748199     0.728452    Uiso  ? H
   H32        1.0     0.211851     0.748199     0.871309    Uiso  ? H
   H32        1.0     0.545184     0.998199     0.014167    Uiso  ? H
   H32        1.0     0.545184     0.998199     0.157024    Uiso  ? H
   H32        1.0     0.545184     0.998199     0.299881    Uiso  ? H
   H32        1.0     0.545184     0.998199     0.442738    Uiso  ? H
   H32        1.0     0.545184     0.998199     0.585595    Uiso  ? H
   H32        1.0     0.545184     0.998199     0.728452    Uiso  ? H
   H32        1.0     0.545184     0.998199     0.871309    Uiso  ? H
   H32        1.0     0.545184     0.248199     0.014167    Uiso  ? H
   H32        1.0     0.545184     0.248199     0.157024    Uiso  ? H
   H32        1.0     0.545184     0.248199     0.299881    Uiso  ? H
   H32        1.0     0.545184     0.248199     0.442738    Uiso  ? H
   H32        1.0     0.545184     0.248199     0.585595    Uiso  ? H
   H32        1.0     0.545184     0.248199     0.728452    Uiso  ? H
   H32        1.0     0.545184     0.248199     0.871309    Uiso  ? H
   H32        1.0     0.545184     0.498199     0.014167    Uiso  ? H
   H32        1.0     0.545184     0.498199     0.157024    Uiso  ? H
   H32        1.0     0.545184     0.498199     0.299881    Uiso  ? H
   H32        1.0     0.545184     0.498199     0.442738    Uiso  ? H
   H32        1.0     0.545184     0.498199     0.585595    Uiso  ? H
   H32        1.0     0.545184     0.498199     0.728452    Uiso  ? H
   H32        1.0     0.545184     0.498199     0.871309    Uiso  ? H
   H32        1.0     0.545184     0.748199     0.014167    Uiso  ? H
   H32        1.0     0.545184     0.748199     0.157024    Uiso  ? H
   H32        1.0     0.545184     0.748199     0.299881    Uiso  ? H
   H32        1.0     0.545184     0.748199     0.442738    Uiso  ? H
   H32        1.0     0.545184     0.748199     0.585595    Uiso  ? H
   H32        1.0     0.545184     0.748199     0.728452    Uiso  ? H
   H32        1.0     0.545184     0.748199     0.871309    Uiso  ? H
   H32        1.0     0.878518     0.998199     0.014167    Uiso  ? H
   H32        1.0     0.878518     0.998199     0.157024    Uiso  ? H
   H32        1.0     0.878518     0.998199     0.299881    Uiso  ? H
   H32        1.0     0.878518     0.998199     0.442738    Uiso  ? H
   H32        1.0     0.878518     0.998199     0.585595    Uiso  ? H
   H32        1.0     0.878518     0.998199     0.728452    Uiso  ? H
   H32        1.0     0.878518     0.998199     0.871309    Uiso  ? H
   H32        1.0     0.878518     0.248199     0.014167    Uiso  ? H
   H32        1.0     0.878518     0.248199     0.157024    Uiso  ? H
   H32        1.0     0.878518     0.248199     0.299881    Uiso  ? H
   H32        1.0     0.878518     0.248199     0.442738    Uiso  ? H
   H32        1.0     0.878518     0.248199     0.585595    Uiso  ? H
   H32        1.0     0.878518     0.248199     0.728452    Uiso  ? H
   H32        1.0     0.878518     0.248199     0.871309    Uiso  ? H
   H32        1.0     0.878518     0.498199     0.014167    Uiso  ? H
   H32        1.0     0.878518     0.498199     0.157024    Uiso  ? H
   H32        1.0     0.878518     0.498199     0.299881    Uiso  ? H
   H32        1.0     0.878518     0.498199     0.442738    Uiso  ? H
   H32        1.0     0.878518     0.498199     0.585595    Uiso  ? H
   H32        1.0     0.878518     0.498199     0.728452    Uiso  ? H
   H32        1.0     0.878518     0.498199     0.871309    Uiso  ? H
   H32        1.0     0.878518     0.748199     0.014167    Uiso  ? H
   H32        1.0     0.878518     0.748199     0.157024    Uiso  ? H
   H32        1.0     0.878518     0.748199     0.299881    Uiso  ? H
   H32        1.0     0.878518     0.748199     0.442738    Uiso  ? H
   H32        1.0     0.878518     0.748199     0.585595    Uiso  ? H
   H32        1.0     0.878518     0.748199     0.728452    Uiso  ? H
   H32        1.0     0.878518     0.748199     0.871309    Uiso  ? H
   H33        1.0     0.206289     0.130967     0.014128    Uiso  ? H
   H33        1.0     0.206289     0.130967     0.156985    Uiso  ? H
   H33        1.0     0.206289     0.130967     0.299843    Uiso  ? H
   H33        1.0     0.206289     0.130967     0.442700    Uiso  ? H
   H33        1.0     0.206289     0.130967     0.585557    Uiso  ? H
   H33        1.0     0.206289     0.130967     0.728414    Uiso  ? H
   H33        1.0     0.206289     0.130967     0.871271    Uiso  ? H
   H33        1.0     0.206289     0.380967     0.014128    Uiso  ? H
   H33        1.0     0.206289     0.380967     0.156985    Uiso  ? H
   H33        1.0     0.206289     0.380967     0.299843    Uiso  ? H
   H33        1.0     0.206289     0.380967     0.442700    Uiso  ? H
   H33        1.0     0.206289     0.380967     0.585557    Uiso  ? H
   H33        1.0     0.206289     0.380967     0.728414    Uiso  ? H
   H33        1.0     0.206289     0.380967     0.871271    Uiso  ? H
   H33        1.0     0.206289     0.630967     0.014128    Uiso  ? H
   H33        1.0     0.206289     0.630967     0.156985    Uiso  ? H
   H33        1.0     0.206289     0.630967     0.299843    Uiso  ? H
   H33        1.0     0.206289     0.630967     0.442700    Uiso  ? H
   H33        1.0     0.206289     0.630967     0.585557    Uiso  ? H
   H33        1.0     0.206289     0.630967     0.728414    Uiso  ? H
   H33        1.0     0.206289     0.630967     0.871271    Uiso  ? H
   H33        1.0     0.206289     0.880967     0.014128    Uiso  ? H
   H33        1.0     0.206289     0.880967     0.156985    Uiso  ? H
   H33        1.0     0.206289     0.880967     0.299843    Uiso  ? H
   H33        1.0     0.206289     0.880967     0.442700    Uiso  ? H
   H33        1.0     0.206289     0.880967     0.585557    Uiso  ? H
   H33        1.0     0.206289     0.880967     0.728414    Uiso  ? H
   H33        1.0     0.206289     0.880967     0.871271    Uiso  ? H
   H33        1.0     0.539622     0.130967     0.014128    Uiso  ? H
   H33        1.0     0.539622     0.130967     0.156985    Uiso  ? H
   H33        1.0     0.539622     0.130967     0.299843    Uiso  ? H
   H33        1.0     0.539622     0.130967     0.442700    Uiso  ? H
   H33        1.0     0.539622     0.130967     0.585557    Uiso  ? H
   H33        1.0     0.539622     0.130967     0.728414    Uiso  ? H
   H33        1.0     0.539622     0.130967     0.871271    Uiso  ? H
   H33        1.0     0.539622     0.380967     0.014128    Uiso  ? H
   H33        1.0     0.539622     0.380967     0.156985    Uiso  ? H
   H33        1.0     0.539622     0.380967     0.299843    Uiso  ? H
   H33        1.0     0.539622     0.380967     0.442700    Uiso  ? H
   H33        1.0     0.539622     0.380967     0.585557    Uiso  ? H
   H33        1.0     0.539622     0.380967     0.728414    Uiso  ? H
   H33        1.0     0.539622     0.380967     0.871271    Uiso  ? H
   H33        1.0     0.539622     0.630967     0.014128    Uiso  ? H
   H33        1.0     0.539622     0.630967     0.156985    Uiso  ? H
   H33        1.0     0.539622     0.630967     0.299843    Uiso  ? H
   H33        1.0     0.539622     0.630967     0.442700    Uiso  ? H
   H33        1.0     0.539622     0.630967     0.585557    Uiso  ? H
   H33        1.0     0.539622     0.630967     0.728414    Uiso  ? H
   H33        1.0     0.539622     0.630967     0.871271    Uiso  ? H
   H33        1.0     0.539622     0.880967     0.014128    Uiso  ? H
   H33        1.0     0.539622     0.880967     0.156985    Uiso  ? H
   H33        1.0     0.539622     0.880967     0.299843    Uiso  ? H
   H33        1.0     0.539622     0.880967     0.442700    Uiso  ? H
   H33        1.0     0.539622     0.880967     0.585557    Uiso  ? H
   H33        1.0     0.539622     0.880967     0.728414    Uiso  ? H
   H33        1.0     0.539622     0.880967     0.871271    Uiso  ? H
   H33        1.0     0.872956     0.130967     0.014128    Uiso  ? H
   H33        1.0     0.872956     0.130967     0.156985    Uiso  ? H
   H33        1.0     0.872956     0.130967     0.299843    Uiso  ? H
   H33        1.0     0.872956     0.130967     0.442700    Uiso  ? H
   H33        1.0     0.872956     0.130967     0.585557    Uiso  ? H
   H33        1.0     0.872956     0.130967     0.728414    Uiso  ? H
   H33        1.0     0.872956     0.130967     0.871271    Uiso  ? H
   H33        1.0     0.872956     0.380967     0.014128    Uiso  ? H
   H33        1.0     0.872956     0.380967     0.156985    Uiso  ? H
   H33        1.0     0.872956     0.380967     0.299843    Uiso  ? H
   H33        1.0     0.872956     0.380967     0.442700    Uiso  ? H
   H33        1.0     0.872956     0.380967     0.585557    Uiso  ? H
   H33        1.0     0.872956     0.380967     0.728414    Uiso  ? H
   H33        1.0     0.872956     0.380967     0.871271    Uiso  ? H
   H33        1.0     0.872956     0.630967     0.014128    Uiso  ? H
   H33        1.0     0.872956     0.630967     0.156985    Uiso  ? H
   H33        1.0     0.872956     0.630967     0.299843    Uiso  ? H
   H33        1.0     0.872956     0.630967     0.442700    Uiso  ? H
   H33        1.0     0.872956     0.630967     0.585557    Uiso  ? H
   H33        1.0     0.872956     0.630967     0.728414    Uiso  ? H
   H33        1.0     0.872956     0.630967     0.871271    Uiso  ? H
   H33        1.0     0.872956     0.880967     0.014128    Uiso  ? H
   H33        1.0     0.872956     0.880967     0.156985    Uiso  ? H
   H33        1.0     0.872956     0.880967     0.299843    Uiso  ? H
   H33        1.0     0.872956     0.880967     0.442700    Uiso  ? H
   H33        1.0     0.872956     0.880967     0.585557    Uiso  ? H
   H33        1.0     0.872956     0.880967     0.728414    Uiso  ? H
   H33        1.0     0.872956     0.880967     0.871271    Uiso  ? H
   H34        1.0     0.325260     0.086777     0.008159    Uiso  ? H
   H34        1.0     0.325260     0.086777     0.151016    Uiso  ? H
   H34        1.0     0.325260     0.086777     0.293873    Uiso  ? H
   H34        1.0     0.325260     0.086777     0.436730    Uiso  ? H
   H34        1.0     0.325260     0.086777     0.579588    Uiso  ? H
   H34        1.0     0.325260     0.086777     0.722445    Uiso  ? H
   H34        1.0     0.325260     0.086777     0.865302    Uiso  ? H
   H34        1.0     0.325260     0.336777     0.008159    Uiso  ? H
   H34        1.0     0.325260     0.336777     0.151016    Uiso  ? H
   H34        1.0     0.325260     0.336777     0.293873    Uiso  ? H
   H34        1.0     0.325260     0.336777     0.436730    Uiso  ? H
   H34        1.0     0.325260     0.336777     0.579588    Uiso  ? H
   H34        1.0     0.325260     0.336777     0.722445    Uiso  ? H
   H34        1.0     0.325260     0.336777     0.865302    Uiso  ? H
   H34        1.0     0.325260     0.586777     0.008159    Uiso  ? H
   H34        1.0     0.325260     0.586777     0.151016    Uiso  ? H
   H34        1.0     0.325260     0.586777     0.293873    Uiso  ? H
   H34        1.0     0.325260     0.586777     0.436730    Uiso  ? H
   H34        1.0     0.325260     0.586777     0.579588    Uiso  ? H
   H34        1.0     0.325260     0.586777     0.722445    Uiso  ? H
   H34        1.0     0.325260     0.586777     0.865302    Uiso  ? H
   H34        1.0     0.325260     0.836777     0.008159    Uiso  ? H
   H34        1.0     0.325260     0.836777     0.151016    Uiso  ? H
   H34        1.0     0.325260     0.836777     0.293873    Uiso  ? H
   H34        1.0     0.325260     0.836777     0.436730    Uiso  ? H
   H34        1.0     0.325260     0.836777     0.579588    Uiso  ? H
   H34        1.0     0.325260     0.836777     0.722445    Uiso  ? H
   H34        1.0     0.325260     0.836777     0.865302    Uiso  ? H
   H34        1.0     0.658593     0.086777     0.008159    Uiso  ? H
   H34        1.0     0.658593     0.086777     0.151016    Uiso  ? H
   H34        1.0     0.658593     0.086777     0.293873    Uiso  ? H
   H34        1.0     0.658593     0.086777     0.436730    Uiso  ? H
   H34        1.0     0.658593     0.086777     0.579588    Uiso  ? H
   H34        1.0     0.658593     0.086777     0.722445    Uiso  ? H
   H34        1.0     0.658593     0.086777     0.865302    Uiso  ? H
   H34        1.0     0.658593     0.336777     0.008159    Uiso  ? H
   H34        1.0     0.658593     0.336777     0.151016    Uiso  ? H
   H34        1.0     0.658593     0.336777     0.293873    Uiso  ? H
   H34        1.0     0.658593     0.336777     0.436730    Uiso  ? H
   H34        1.0     0.658593     0.336777     0.579588    Uiso  ? H
   H34        1.0     0.658593     0.336777     0.722445    Uiso  ? H
   H34        1.0     0.658593     0.336777     0.865302    Uiso  ? H
   H34        1.0     0.658593     0.586777     0.008159    Uiso  ? H
   H34        1.0     0.658593     0.586777     0.151016    Uiso  ? H
   H34        1.0     0.658593     0.586777     0.293873    Uiso  ? H
   H34        1.0     0.658593     0.586777     0.436730    Uiso  ? H
   H34        1.0     0.658593     0.586777     0.579588    Uiso  ? H
   H34        1.0     0.658593     0.586777     0.722445    Uiso  ? H
   H34        1.0     0.658593     0.586777     0.865302    Uiso  ? H
   H34        1.0     0.658593     0.836777     0.008159    Uiso  ? H
   H34        1.0     0.658593     0.836777     0.151016    Uiso  ? H
   H34        1.0     0.658593     0.836777     0.293873    Uiso  ? H
   H34        1.0     0.658593     0.836777     0.436730    Uiso  ? H
   H34        1.0     0.658593     0.836777     0.579588    Uiso  ? H
   H34        1.0     0.658593     0.836777     0.722445    Uiso  ? H
   H34        1.0     0.658593     0.836777     0.865302    Uiso  ? H
   H34        1.0     0.991927     0.086777     0.008159    Uiso  ? H
   H34        1.0     0.991927     0.086777     0.151016    Uiso  ? H
   H34        1.0     0.991927     0.086777     0.293873    Uiso  ? H
   H34        1.0     0.991927     0.086777     0.436730    Uiso  ? H
   H34        1.0     0.991927     0.086777     0.579588    Uiso  ? H
   H34        1.0     0.991927     0.086777     0.722445    Uiso  ? H
   H34        1.0     0.991927     0.086777     0.865302    Uiso  ? H
   H34        1.0     0.991927     0.336777     0.008159    Uiso  ? H
   H34        1.0     0.991927     0.336777     0.151016    Uiso  ? H
   H34        1.0     0.991927     0.336777     0.293873    Uiso  ? H
   H34        1.0     0.991927     0.336777     0.436730    Uiso  ? H
   H34        1.0     0.991927     0.336777     0.579588    Uiso  ? H
   H34        1.0     0.991927     0.336777     0.722445    Uiso  ? H
   H34        1.0     0.991927     0.336777     0.865302    Uiso  ? H
   H34        1.0     0.991927     0.586777     0.008159    Uiso  ? H
   H34        1.0     0.991927     0.586777     0.151016    Uiso  ? H
   H34        1.0     0.991927     0.586777     0.293873    Uiso  ? H
   H34        1.0     0.991927     0.586777     0.436730    Uiso  ? H
   H34        1.0     0.991927     0.586777     0.579588    Uiso  ? H
   H34        1.0     0.991927     0.586777     0.722445    Uiso  ? H
   H34        1.0     0.991927     0.586777     0.865302    Uiso  ? H
   H34        1.0     0.991927     0.836777     0.008159    Uiso  ? H
   H34        1.0     0.991927     0.836777     0.151016    Uiso  ? H
   H34        1.0     0.991927     0.836777     0.293873    Uiso  ? H
   H34        1.0     0.991927     0.836777     0.436730    Uiso  ? H
   H34        1.0     0.991927     0.836777     0.579588    Uiso  ? H
   H34        1.0     0.991927     0.836777     0.722445    Uiso  ? H
   H34        1.0     0.991927     0.836777     0.865302    Uiso  ? H
   H35        1.0     0.302937     0.244709     0.003594    Uiso  ? H
   H35        1.0     0.302937     0.244709     0.146451    Uiso  ? H
   H35        1.0     0.302937     0.244709     0.289308    Uiso  ? H
   H35        1.0     0.302937     0.244709     0.432165    Uiso  ? H
   H35        1.0     0.302937     0.244709     0.575022    Uiso  ? H
   H35        1.0     0.302937     0.244709     0.717880    Uiso  ? H
   H35        1.0     0.302937     0.244709     0.860737    Uiso  ? H
   H35        1.0     0.302937     0.494709     0.003594    Uiso  ? H
   H35        1.0     0.302937     0.494709     0.146451    Uiso  ? H
   H35        1.0     0.302937     0.494709     0.289308    Uiso  ? H
   H35        1.0     0.302937     0.494709     0.432165    Uiso  ? H
   H35        1.0     0.302937     0.494709     0.575022    Uiso  ? H
   H35        1.0     0.302937     0.494709     0.717880    Uiso  ? H
   H35        1.0     0.302937     0.494709     0.860737    Uiso  ? H
   H35        1.0     0.302937     0.744709     0.003594    Uiso  ? H
   H35        1.0     0.302937     0.744709     0.146451    Uiso  ? H
   H35        1.0     0.302937     0.744709     0.289308    Uiso  ? H
   H35        1.0     0.302937     0.744709     0.432165    Uiso  ? H
   H35        1.0     0.302937     0.744709     0.575022    Uiso  ? H
   H35        1.0     0.302937     0.744709     0.717880    Uiso  ? H
   H35        1.0     0.302937     0.744709     0.860737    Uiso  ? H
   H35        1.0     0.302937     0.994709     0.003594    Uiso  ? H
   H35        1.0     0.302937     0.994709     0.146451    Uiso  ? H
   H35        1.0     0.302937     0.994709     0.289308    Uiso  ? H
   H35        1.0     0.302937     0.994709     0.432165    Uiso  ? H
   H35        1.0     0.302937     0.994709     0.575022    Uiso  ? H
   H35        1.0     0.302937     0.994709     0.717880    Uiso  ? H
   H35        1.0     0.302937     0.994709     0.860737    Uiso  ? H
   H35        1.0     0.636271     0.244709     0.003594    Uiso  ? H
   H35        1.0     0.636271     0.244709     0.146451    Uiso  ? H
   H35        1.0     0.636271     0.244709     0.289308    Uiso  ? H
   H35        1.0     0.636271     0.244709     0.432165    Uiso  ? H
   H35        1.0     0.636271     0.244709     0.575022    Uiso  ? H
   H35        1.0     0.636271     0.244709     0.717880    Uiso  ? H
   H35        1.0     0.636271     0.244709     0.860737    Uiso  ? H
   H35        1.0     0.636271     0.494709     0.003594    Uiso  ? H
   H35        1.0     0.636271     0.494709     0.146451    Uiso  ? H
   H35        1.0     0.636271     0.494709     0.289308    Uiso  ? H
   H35        1.0     0.636271     0.494709     0.432165    Uiso  ? H
   H35        1.0     0.636271     0.494709     0.575022    Uiso  ? H
   H35        1.0     0.636271     0.494709     0.717880    Uiso  ? H
   H35        1.0     0.636271     0.494709     0.860737    Uiso  ? H
   H35        1.0     0.636271     0.744709     0.003594    Uiso  ? H
   H35        1.0     0.636271     0.744709     0.146451    Uiso  ? H
   H35        1.0     0.636271     0.744709     0.289308    Uiso  ? H
   H35        1.0     0.636271     0.744709     0.432165    Uiso  ? H
   H35        1.0     0.636271     0.744709     0.575022    Uiso  ? H
   H35        1.0     0.636271     0.744709     0.717880    Uiso  ? H
   H35        1.0     0.636271     0.744709     0.860737    Uiso  ? H
   H35        1.0     0.636271     0.994709     0.003594    Uiso  ? H
   H35        1.0     0.636271     0.994709     0.146451    Uiso  ? H
   H35        1.0     0.636271     0.994709     0.289308    Uiso  ? H
   H35        1.0     0.636271     0.994709     0.432165    Uiso  ? H
   H35        1.0     0.636271     0.994709     0.575022    Uiso  ? H
   H35        1.0     0.636271     0.994709     0.717880    Uiso  ? H
   H35        1.0     0.636271     0.994709     0.860737    Uiso  ? H
   H35        1.0     0.969604     0.244709     0.003594    Uiso  ? H
   H35        1.0     0.969604     0.244709     0.146451    Uiso  ? H
   H35        1.0     0.969604     0.244709     0.289308    Uiso  ? H
   H35        1.0     0.969604     0.244709     0.432165    Uiso  ? H
   H35        1.0     0.969604     0.244709     0.575022    Uiso  ? H
   H35        1.0     0.969604     0.244709     0.717880    Uiso  ? H
   H35        1.0     0.969604     0.244709     0.860737    Uiso  ? H
   H35        1.0     0.969604     0.494709     0.003594    Uiso  ? H
   H35        1.0     0.969604     0.494709     0.146451    Uiso  ? H
   H35        1.0     0.969604     0.494709     0.289308    Uiso  ? H
   H35        1.0     0.969604     0.494709     0.432165    Uiso  ? H
   H35        1.0     0.969604     0.494709     0.575022    Uiso  ? H
   H35        1.0     0.969604     0.494709     0.717880    Uiso  ? H
   H35        1.0     0.969604     0.494709     0.860737    Uiso  ? H
   H35        1.0     0.969604     0.744709     0.003594    Uiso  ? H
   H35        1.0     0.969604     0.744709     0.146451    Uiso  ? H
   H35        1.0     0.969604     0.744709     0.289308    Uiso  ? H
   H35        1.0     0.969604     0.744709     0.432165    Uiso  ? H
   H35        1.0     0.969604     0.744709     0.575022    Uiso  ? H
   H35        1.0     0.969604     0.744709     0.717880    Uiso  ? H
   H35        1.0     0.969604     0.744709     0.860737    Uiso  ? H
   H35        1.0     0.969604     0.994709     0.003594    Uiso  ? H
   H35        1.0     0.969604     0.994709     0.146451    Uiso  ? H
   H35        1.0     0.969604     0.994709     0.289308    Uiso  ? H
   H35        1.0     0.969604     0.994709     0.432165    Uiso  ? H
   H35        1.0     0.969604     0.994709     0.575022    Uiso  ? H
   H35        1.0     0.969604     0.994709     0.717880    Uiso  ? H
   H35        1.0     0.969604     0.994709     0.860737    Uiso  ? H
   H36        1.0     0.298830     0.123271     0.001333    Uiso  ? H
   H36        1.0     0.298830     0.123271     0.144190    Uiso  ? H
   H36        1.0     0.298830     0.123271     0.287048    Uiso  ? H
   H36        1.0     0.298830     0.123271     0.429905    Uiso  ? H
   H36        1.0     0.298830     0.123271     0.572762    Uiso  ? H
   H36        1.0     0.298830     0.123271     0.715619    Uiso  ? H
   H36        1.0     0.298830     0.123271     0.858476    Uiso  ? H
   H36        1.0     0.298830     0.373271     0.001333    Uiso  ? H
   H36        1.0     0.298830     0.373271     0.144190    Uiso  ? H
   H36        1.0     0.298830     0.373271     0.287048    Uiso  ? H
   H36        1.0     0.298830     0.373271     0.429905    Uiso  ? H
   H36        1.0     0.298830     0.373271     0.572762    Uiso  ? H
   H36        1.0     0.298830     0.373271     0.715619    Uiso  ? H
   H36        1.0     0.298830     0.373271     0.858476    Uiso  ? H
   H36        1.0     0.298830     0.623271     0.001333    Uiso  ? H
   H36        1.0     0.298830     0.623271     0.144190    Uiso  ? H
   H36        1.0     0.298830     0.623271     0.287048    Uiso  ? H
   H36        1.0     0.298830     0.623271     0.429905    Uiso  ? H
   H36        1.0     0.298830     0.623271     0.572762    Uiso  ? H
   H36        1.0     0.298830     0.623271     0.715619    Uiso  ? H
   H36        1.0     0.298830     0.623271     0.858476    Uiso  ? H
   H36        1.0     0.298830     0.873271     0.001333    Uiso  ? H
   H36        1.0     0.298830     0.873271     0.144190    Uiso  ? H
   H36        1.0     0.298830     0.873271     0.287048    Uiso  ? H
   H36        1.0     0.298830     0.873271     0.429905    Uiso  ? H
   H36        1.0     0.298830     0.873271     0.572762    Uiso  ? H
   H36        1.0     0.298830     0.873271     0.715619    Uiso  ? H
   H36        1.0     0.298830     0.873271     0.858476    Uiso  ? H
   H36        1.0     0.632164     0.123271     0.001333    Uiso  ? H
   H36        1.0     0.632164     0.123271     0.144190    Uiso  ? H
   H36        1.0     0.632164     0.123271     0.287048    Uiso  ? H
   H36        1.0     0.632164     0.123271     0.429905    Uiso  ? H
   H36        1.0     0.632164     0.123271     0.572762    Uiso  ? H
   H36        1.0     0.632164     0.123271     0.715619    Uiso  ? H
   H36        1.0     0.632164     0.123271     0.858476    Uiso  ? H
   H36        1.0     0.632164     0.373271     0.001333    Uiso  ? H
   H36        1.0     0.632164     0.373271     0.144190    Uiso  ? H
   H36        1.0     0.632164     0.373271     0.287048    Uiso  ? H
   H36        1.0     0.632164     0.373271     0.429905    Uiso  ? H
   H36        1.0     0.632164     0.373271     0.572762    Uiso  ? H
   H36        1.0     0.632164     0.373271     0.715619    Uiso  ? H
   H36        1.0     0.632164     0.373271     0.858476    Uiso  ? H
   H36        1.0     0.632164     0.623271     0.001333    Uiso  ? H
   H36        1.0     0.632164     0.623271     0.144190    Uiso  ? H
   H36        1.0     0.632164     0.623271     0.287048    Uiso  ? H
   H36        1.0     0.632164     0.623271     0.429905    Uiso  ? H
   H36        1.0     0.632164     0.623271     0.572762    Uiso  ? H
   H36        1.0     0.632164     0.623271     0.715619    Uiso  ? H
   H36        1.0     0.632164     0.623271     0.858476    Uiso  ? H
   H36        1.0     0.632164     0.873271     0.001333    Uiso  ? H
   H36        1.0     0.632164     0.873271     0.144190    Uiso  ? H
   H36        1.0     0.632164     0.873271     0.287048    Uiso  ? H
   H36        1.0     0.632164     0.873271     0.429905    Uiso  ? H
   H36        1.0     0.632164     0.873271     0.572762    Uiso  ? H
   H36        1.0     0.632164     0.873271     0.715619    Uiso  ? H
   H36        1.0     0.632164     0.873271     0.858476    Uiso  ? H
   H36        1.0     0.965497     0.123271     0.001333    Uiso  ? H
   H36        1.0     0.965497     0.123271     0.144190    Uiso  ? H
   H36        1.0     0.965497     0.123271     0.287048    Uiso  ? H
   H36        1.0     0.965497     0.123271     0.429905    Uiso  ? H
   H36        1.0     0.965497     0.123271     0.572762    Uiso  ? H
   H36        1.0     0.965497     0.123271     0.715619    Uiso  ? H
   H36        1.0     0.965497     0.123271     0.858476    Uiso  ? H
   H36        1.0     0.965497     0.373271     0.001333    Uiso  ? H
   H36        1.0     0.965497     0.373271     0.144190    Uiso  ? H
   H36        1.0     0.965497     0.373271     0.287048    Uiso  ? H
   H36        1.0     0.965497     0.373271     0.429905    Uiso  ? H
   H36        1.0     0.965497     0.373271     0.572762    Uiso  ? H
   H36        1.0     0.965497     0.373271     0.715619    Uiso  ? H
   H36        1.0     0.965497     0.373271     0.858476    Uiso  ? H
   H36        1.0     0.965497     0.623271     0.001333    Uiso  ? H
   H36        1.0     0.965497     0.623271     0.144190    Uiso  ? H
   H36        1.0     0.965497     0.623271     0.287048    Uiso  ? H
   H36        1.0     0.965497     0.623271     0.429905    Uiso  ? H
   H36        1.0     0.965497     0.623271     0.572762    Uiso  ? H
   H36        1.0     0.965497     0.623271     0.715619    Uiso  ? H
   H36        1.0     0.965497     0.623271     0.858476    Uiso  ? H
   H36        1.0     0.965497     0.873271     0.001333    Uiso  ? H
   H36        1.0     0.965497     0.873271     0.144190    Uiso  ? H
   H36        1.0     0.965497     0.873271     0.287048    Uiso  ? H
   H36        1.0     0.965497     0.873271     0.429905    Uiso  ? H
   H36        1.0     0.965497     0.873271     0.572762    Uiso  ? H
   H36        1.0     0.965497     0.873271     0.715619    Uiso  ? H
   H36        1.0     0.965497     0.873271     0.858476    Uiso  ? H
   O1         1.0     0.230908     0.216557     0.132791    Uiso  ? O
   O1         1.0     0.230908     0.216557     0.275648    Uiso  ? O
   O1         1.0     0.230908     0.216557     0.418505    Uiso  ? O
   O1         1.0     0.230908     0.216557     0.561363    Uiso  ? O
   O1         1.0     0.230908     0.216557     0.704220    Uiso  ? O
   O1         1.0     0.230908     0.216557     0.847077    Uiso  ? O
   O1         1.0     0.230908     0.216557     0.989934    Uiso  ? O
   O1         1.0     0.230908     0.466557     0.132791    Uiso  ? O
   O1         1.0     0.230908     0.466557     0.275648    Uiso  ? O
   O1         1.0     0.230908     0.466557     0.418505    Uiso  ? O
   O1         1.0     0.230908     0.466557     0.561363    Uiso  ? O
   O1         1.0     0.230908     0.466557     0.704220    Uiso  ? O
   O1         1.0     0.230908     0.466557     0.847077    Uiso  ? O
   O1         1.0     0.230908     0.466557     0.989934    Uiso  ? O
   O1         1.0     0.230908     0.716557     0.132791    Uiso  ? O
   O1         1.0     0.230908     0.716557     0.275648    Uiso  ? O
   O1         1.0     0.230908     0.716557     0.418505    Uiso  ? O
   O1         1.0     0.230908     0.716557     0.561363    Uiso  ? O
   O1         1.0     0.230908     0.716557     0.704220    Uiso  ? O
   O1         1.0     0.230908     0.716557     0.847077    Uiso  ? O
   O1         1.0     0.230908     0.716557     0.989934    Uiso  ? O
   O1         1.0     0.230908     0.966557     0.132791    Uiso  ? O
   O1         1.0     0.230908     0.966557     0.275648    Uiso  ? O
   O1         1.0     0.230908     0.966557     0.418505    Uiso  ? O
   O1         1.0     0.230908     0.966557     0.561363    Uiso  ? O
   O1         1.0     0.230908     0.966557     0.704220    Uiso  ? O
   O1         1.0     0.230908     0.966557     0.847077    Uiso  ? O
   O1         1.0     0.230908     0.966557     0.989934    Uiso  ? O
   O1         1.0     0.564242     0.216557     0.132791    Uiso  ? O
   O1         1.0     0.564242     0.216557     0.275648    Uiso  ? O
   O1         1.0     0.564242     0.216557     0.418505    Uiso  ? O
   O1         1.0     0.564242     0.216557     0.561363    Uiso  ? O
   O1         1.0     0.564242     0.216557     0.704220    Uiso  ? O
   O1         1.0     0.564242     0.216557     0.847077    Uiso  ? O
   O1         1.0     0.564242     0.216557     0.989934    Uiso  ? O
   O1         1.0     0.564242     0.466557     0.132791    Uiso  ? O
   O1         1.0     0.564242     0.466557     0.275648    Uiso  ? O
   O1         1.0     0.564242     0.466557     0.418505    Uiso  ? O
   O1         1.0     0.564242     0.466557     0.561363    Uiso  ? O
   O1         1.0     0.564242     0.466557     0.704220    Uiso  ? O
   O1         1.0     0.564242     0.466557     0.847077    Uiso  ? O
   O1         1.0     0.564242     0.466557     0.989934    Uiso  ? O
   O1         1.0     0.564242     0.716557     0.132791    Uiso  ? O
   O1         1.0     0.564242     0.716557     0.275648    Uiso  ? O
   O1         1.0     0.564242     0.716557     0.418505    Uiso  ? O
   O1         1.0     0.564242     0.716557     0.561363    Uiso  ? O
   O1         1.0     0.564242     0.716557     0.704220    Uiso  ? O
   O1         1.0     0.564242     0.716557     0.847077    Uiso  ? O
   O1         1.0     0.564242     0.716557     0.989934    Uiso  ? O
   O1         1.0     0.564242     0.966557     0.132791    Uiso  ? O
   O1         1.0     0.564242     0.966557     0.275648    Uiso  ? O
   O1         1.0     0.564242     0.966557     0.418505    Uiso  ? O
   O1         1.0     0.564242     0.966557     0.561363    Uiso  ? O
   O1         1.0     0.564242     0.966557     0.704220    Uiso  ? O
   O1         1.0     0.564242     0.966557     0.847077    Uiso  ? O
   O1         1.0     0.564242     0.966557     0.989934    Uiso  ? O
   O1         1.0     0.897575     0.216557     0.132791    Uiso  ? O
   O1         1.0     0.897575     0.216557     0.275648    Uiso  ? O
   O1         1.0     0.897575     0.216557     0.418505    Uiso  ? O
   O1         1.0     0.897575     0.216557     0.561363    Uiso  ? O
   O1         1.0     0.897575     0.216557     0.704220    Uiso  ? O
   O1         1.0     0.897575     0.216557     0.847077    Uiso  ? O
   O1         1.0     0.897575     0.216557     0.989934    Uiso  ? O
   O1         1.0     0.897575     0.466557     0.132791    Uiso  ? O
   O1         1.0     0.897575     0.466557     0.275648    Uiso  ? O
   O1         1.0     0.897575     0.466557     0.418505    Uiso  ? O
   O1         1.0     0.897575     0.466557     0.561363    Uiso  ? O
   O1         1.0     0.897575     0.466557     0.704220    Uiso  ? O
   O1         1.0     0.897575     0.466557     0.847077    Uiso  ? O
   O1         1.0     0.897575     0.466557     0.989934    Uiso  ? O
   O1         1.0     0.897575     0.716557     0.132791    Uiso  ? O
   O1         1.0     0.897575     0.716557     0.275648    Uiso  ? O
   O1         1.0     0.897575     0.716557     0.418505    Uiso  ? O
   O1         1.0     0.897575     0.716557     0.561363    Uiso  ? O
   O1         1.0     0.897575     0.716557     0.704220    Uiso  ? O
   O1         1.0     0.897575     0.716557     0.847077    Uiso  ? O
   O1         1.0     0.897575     0.716557     0.989934    Uiso  ? O
   O1         1.0     0.897575     0.966557     0.132791    Uiso  ? O
   O1         1.0     0.897575     0.966557     0.275648    Uiso  ? O
   O1         1.0     0.897575     0.966557     0.418505    Uiso  ? O
   O1         1.0     0.897575     0.966557     0.561363    Uiso  ? O
   O1         1.0     0.897575     0.966557     0.704220    Uiso  ? O
   O1         1.0     0.897575     0.966557     0.847077    Uiso  ? O
   O1         1.0     0.897575     0.966557     0.989934    Uiso  ? O
   O2         1.0     0.228451     0.159455     0.131680    Uiso  ? O
   O2         1.0     0.228451     0.159455     0.274537    Uiso  ? O
   O2         1.0     0.228451     0.159455     0.417395    Uiso  ? O
   O2         1.0     0.228451     0.159455     0.560252    Uiso  ? O
   O2         1.0     0.228451     0.159455     0.703109    Uiso  ? O
   O2         1.0     0.228451     0.159455     0.845966    Uiso  ? O
   O2         1.0     0.228451     0.159455     0.988823    Uiso  ? O
   O2         1.0     0.228451     0.409455     0.131680    Uiso  ? O
   O2         1.0     0.228451     0.409455     0.274537    Uiso  ? O
   O2         1.0     0.228451     0.409455     0.417395    Uiso  ? O
   O2         1.0     0.228451     0.409455     0.560252    Uiso  ? O
   O2         1.0     0.228451     0.409455     0.703109    Uiso  ? O
   O2         1.0     0.228451     0.409455     0.845966    Uiso  ? O
   O2         1.0     0.228451     0.409455     0.988823    Uiso  ? O
   O2         1.0     0.228451     0.659455     0.131680    Uiso  ? O
   O2         1.0     0.228451     0.659455     0.274537    Uiso  ? O
   O2         1.0     0.228451     0.659455     0.417395    Uiso  ? O
   O2         1.0     0.228451     0.659455     0.560252    Uiso  ? O
   O2         1.0     0.228451     0.659455     0.703109    Uiso  ? O
   O2         1.0     0.228451     0.659455     0.845966    Uiso  ? O
   O2         1.0     0.228451     0.659455     0.988823    Uiso  ? O
   O2         1.0     0.228451     0.909455     0.131680    Uiso  ? O
   O2         1.0     0.228451     0.909455     0.274537    Uiso  ? O
   O2         1.0     0.228451     0.909455     0.417395    Uiso  ? O
   O2         1.0     0.228451     0.909455     0.560252    Uiso  ? O
   O2         1.0     0.228451     0.909455     0.703109    Uiso  ? O
   O2         1.0     0.228451     0.909455     0.845966    Uiso  ? O
   O2         1.0     0.228451     0.909455     0.988823    Uiso  ? O
   O2         1.0     0.561784     0.159455     0.131680    Uiso  ? O
   O2         1.0     0.561784     0.159455     0.274537    Uiso  ? O
   O2         1.0     0.561784     0.159455     0.417395    Uiso  ? O
   O2         1.0     0.561784     0.159455     0.560252    Uiso  ? O
   O2         1.0     0.561784     0.159455     0.703109    Uiso  ? O
   O2         1.0     0.561784     0.159455     0.845966    Uiso  ? O
   O2         1.0     0.561784     0.159455     0.988823    Uiso  ? O
   O2         1.0     0.561784     0.409455     0.131680    Uiso  ? O
   O2         1.0     0.561784     0.409455     0.274537    Uiso  ? O
   O2         1.0     0.561784     0.409455     0.417395    Uiso  ? O
   O2         1.0     0.561784     0.409455     0.560252    Uiso  ? O
   O2         1.0     0.561784     0.409455     0.703109    Uiso  ? O
   O2         1.0     0.561784     0.409455     0.845966    Uiso  ? O
   O2         1.0     0.561784     0.409455     0.988823    Uiso  ? O
   O2         1.0     0.561784     0.659455     0.131680    Uiso  ? O
   O2         1.0     0.561784     0.659455     0.274537    Uiso  ? O
   O2         1.0     0.561784     0.659455     0.417395    Uiso  ? O
   O2         1.0     0.561784     0.659455     0.560252    Uiso  ? O
   O2         1.0     0.561784     0.659455     0.703109    Uiso  ? O
   O2         1.0     0.561784     0.659455     0.845966    Uiso  ? O
   O2         1.0     0.561784     0.659455     0.988823    Uiso  ? O
   O2         1.0     0.561784     0.909455     0.131680    Uiso  ? O
   O2         1.0     0.561784     0.909455     0.274537    Uiso  ? O
   O2         1.0     0.561784     0.909455     0.417395    Uiso  ? O
   O2         1.0     0.561784     0.909455     0.560252    Uiso  ? O
   O2         1.0     0.561784     0.909455     0.703109    Uiso  ? O
   O2         1.0     0.561784     0.909455     0.845966    Uiso  ? O
   O2         1.0     0.561784     0.909455     0.988823    Uiso  ? O
   O2         1.0     0.895117     0.159455     0.131680    Uiso  ? O
   O2         1.0     0.895117     0.159455     0.274537    Uiso  ? O
   O2         1.0     0.895117     0.159455     0.417395    Uiso  ? O
   O2         1.0     0.895117     0.159455     0.560252    Uiso  ? O
   O2         1.0     0.895117     0.159455     0.703109    Uiso  ? O
   O2         1.0     0.895117     0.159455     0.845966    Uiso  ? O
   O2         1.0     0.895117     0.159455     0.988823    Uiso  ? O
   O2         1.0     0.895117     0.409455     0.131680    Uiso  ? O
   O2         1.0     0.895117     0.409455     0.274537    Uiso  ? O
   O2         1.0     0.895117     0.409455     0.417395    Uiso  ? O
   O2         1.0     0.895117     0.409455     0.560252    Uiso  ? O
   O2         1.0     0.895117     0.409455     0.703109    Uiso  ? O
   O2         1.0     0.895117     0.409455     0.845966    Uiso  ? O
   O2         1.0     0.895117     0.409455     0.988823    Uiso  ? O
   O2         1.0     0.895117     0.659455     0.131680    Uiso  ? O
   O2         1.0     0.895117     0.659455     0.274537    Uiso  ? O
   O2         1.0     0.895117     0.659455     0.417395    Uiso  ? O
   O2         1.0     0.895117     0.659455     0.560252    Uiso  ? O
   O2         1.0     0.895117     0.659455     0.703109    Uiso  ? O
   O2         1.0     0.895117     0.659455     0.845966    Uiso  ? O
   O2         1.0     0.895117     0.659455     0.988823    Uiso  ? O
   O2         1.0     0.895117     0.909455     0.131680    Uiso  ? O
   O2         1.0     0.895117     0.909455     0.274537    Uiso  ? O
   O2         1.0     0.895117     0.909455     0.417395    Uiso  ? O
   O2         1.0     0.895117     0.909455     0.560252    Uiso  ? O
   O2         1.0     0.895117     0.909455     0.703109    Uiso  ? O
   O2         1.0     0.895117     0.909455     0.845966    Uiso  ? O
   O2         1.0     0.895117     0.909455     0.988823    Uiso  ? O
   O3         1.0     0.057580     0.035335     0.124354    Uiso  ? O
   O3         1.0     0.057580     0.035335     0.267211    Uiso  ? O
   O3         1.0     0.057580     0.035335     0.410069    Uiso  ? O
   O3         1.0     0.057580     0.035335     0.552926    Uiso  ? O
   O3         1.0     0.057580     0.035335     0.695783    Uiso  ? O
   O3         1.0     0.057580     0.035335     0.838640    Uiso  ? O
   O3         1.0     0.057580     0.035335     0.981497    Uiso  ? O
   O3         1.0     0.057580     0.285335     0.124354    Uiso  ? O
   O3         1.0     0.057580     0.285335     0.267211    Uiso  ? O
   O3         1.0     0.057580     0.285335     0.410069    Uiso  ? O
   O3         1.0     0.057580     0.285335     0.552926    Uiso  ? O
   O3         1.0     0.057580     0.285335     0.695783    Uiso  ? O
   O3         1.0     0.057580     0.285335     0.838640    Uiso  ? O
   O3         1.0     0.057580     0.285335     0.981497    Uiso  ? O
   O3         1.0     0.057580     0.535335     0.124354    Uiso  ? O
   O3         1.0     0.057580     0.535335     0.267211    Uiso  ? O
   O3         1.0     0.057580     0.535335     0.410069    Uiso  ? O
   O3         1.0     0.057580     0.535335     0.552926    Uiso  ? O
   O3         1.0     0.057580     0.535335     0.695783    Uiso  ? O
   O3         1.0     0.057580     0.535335     0.838640    Uiso  ? O
   O3         1.0     0.057580     0.535335     0.981497    Uiso  ? O
   O3         1.0     0.057580     0.785335     0.124354    Uiso  ? O
   O3         1.0     0.057580     0.785335     0.267211    Uiso  ? O
   O3         1.0     0.057580     0.785335     0.410069    Uiso  ? O
   O3         1.0     0.057580     0.785335     0.552926    Uiso  ? O
   O3         1.0     0.057580     0.785335     0.695783    Uiso  ? O
   O3         1.0     0.057580     0.785335     0.838640    Uiso  ? O
   O3         1.0     0.057580     0.785335     0.981497    Uiso  ? O
   O3         1.0     0.390914     0.035335     0.124354    Uiso  ? O
   O3         1.0     0.390914     0.035335     0.267211    Uiso  ? O
   O3         1.0     0.390914     0.035335     0.410069    Uiso  ? O
   O3         1.0     0.390914     0.035335     0.552926    Uiso  ? O
   O3         1.0     0.390914     0.035335     0.695783    Uiso  ? O
   O3         1.0     0.390914     0.035335     0.838640    Uiso  ? O
   O3         1.0     0.390914     0.035335     0.981497    Uiso  ? O
   O3         1.0     0.390914     0.285335     0.124354    Uiso  ? O
   O3         1.0     0.390914     0.285335     0.267211    Uiso  ? O
   O3         1.0     0.390914     0.285335     0.410069    Uiso  ? O
   O3         1.0     0.390914     0.285335     0.552926    Uiso  ? O
   O3         1.0     0.390914     0.285335     0.695783    Uiso  ? O
   O3         1.0     0.390914     0.285335     0.838640    Uiso  ? O
   O3         1.0     0.390914     0.285335     0.981497    Uiso  ? O
   O3         1.0     0.390914     0.535335     0.124354    Uiso  ? O
   O3         1.0     0.390914     0.535335     0.267211    Uiso  ? O
   O3         1.0     0.390914     0.535335     0.410069    Uiso  ? O
   O3         1.0     0.390914     0.535335     0.552926    Uiso  ? O
   O3         1.0     0.390914     0.535335     0.695783    Uiso  ? O
   O3         1.0     0.390914     0.535335     0.838640    Uiso  ? O
   O3         1.0     0.390914     0.535335     0.981497    Uiso  ? O
   O3         1.0     0.390914     0.785335     0.124354    Uiso  ? O
   O3         1.0     0.390914     0.785335     0.267211    Uiso  ? O
   O3         1.0     0.390914     0.785335     0.410069    Uiso  ? O
   O3         1.0     0.390914     0.785335     0.552926    Uiso  ? O
   O3         1.0     0.390914     0.785335     0.695783    Uiso  ? O
   O3         1.0     0.390914     0.785335     0.838640    Uiso  ? O
   O3         1.0     0.390914     0.785335     0.981497    Uiso  ? O
   O3         1.0     0.724247     0.035335     0.124354    Uiso  ? O
   O3         1.0     0.724247     0.035335     0.267211    Uiso  ? O
   O3         1.0     0.724247     0.035335     0.410069    Uiso  ? O
   O3         1.0     0.724247     0.035335     0.552926    Uiso  ? O
   O3         1.0     0.724247     0.035335     0.695783    Uiso  ? O
   O3         1.0     0.724247     0.035335     0.838640    Uiso  ? O
   O3         1.0     0.724247     0.035335     0.981497    Uiso  ? O
   O3         1.0     0.724247     0.285335     0.124354    Uiso  ? O
   O3         1.0     0.724247     0.285335     0.267211    Uiso  ? O
   O3         1.0     0.724247     0.285335     0.410069    Uiso  ? O
   O3         1.0     0.724247     0.285335     0.552926    Uiso  ? O
   O3         1.0     0.724247     0.285335     0.695783    Uiso  ? O
   O3         1.0     0.724247     0.285335     0.838640    Uiso  ? O
   O3         1.0     0.724247     0.285335     0.981497    Uiso  ? O
   O3         1.0     0.724247     0.535335     0.124354    Uiso  ? O
   O3         1.0     0.724247     0.535335     0.267211    Uiso  ? O
   O3         1.0     0.724247     0.535335     0.410069    Uiso  ? O
   O3         1.0     0.724247     0.535335     0.552926    Uiso  ? O
   O3         1.0     0.724247     0.535335     0.695783    Uiso  ? O
   O3         1.0     0.724247     0.535335     0.838640    Uiso  ? O
   O3         1.0     0.724247     0.535335     0.981497    Uiso  ? O
   O3         1.0     0.724247     0.785335     0.124354    Uiso  ? O
   O3         1.0     0.724247     0.785335     0.267211    Uiso  ? O
   O3         1.0     0.724247     0.785335     0.410069    Uiso  ? O
   O3         1.0     0.724247     0.785335     0.552926    Uiso  ? O
   O3         1.0     0.724247     0.785335     0.695783    Uiso  ? O
   O3         1.0     0.724247     0.785335     0.838640    Uiso  ? O
   O3         1.0     0.724247     0.785335     0.981497    Uiso  ? O
   O4         1.0     0.179533     0.189557     0.127505    Uiso  ? O
   O4         1.0     0.179533     0.189557     0.270362    Uiso  ? O
   O4         1.0     0.179533     0.189557     0.413219    Uiso  ? O
   O4         1.0     0.179533     0.189557     0.556076    Uiso  ? O
   O4         1.0     0.179533     0.189557     0.698933    Uiso  ? O
   O4         1.0     0.179533     0.189557     0.841790    Uiso  ? O
   O4         1.0     0.179533     0.189557     0.984648    Uiso  ? O
   O4         1.0     0.179533     0.439557     0.127505    Uiso  ? O
   O4         1.0     0.179533     0.439557     0.270362    Uiso  ? O
   O4         1.0     0.179533     0.439557     0.413219    Uiso  ? O
   O4         1.0     0.179533     0.439557     0.556076    Uiso  ? O
   O4         1.0     0.179533     0.439557     0.698933    Uiso  ? O
   O4         1.0     0.179533     0.439557     0.841790    Uiso  ? O
   O4         1.0     0.179533     0.439557     0.984648    Uiso  ? O
   O4         1.0     0.179533     0.689557     0.127505    Uiso  ? O
   O4         1.0     0.179533     0.689557     0.270362    Uiso  ? O
   O4         1.0     0.179533     0.689557     0.413219    Uiso  ? O
   O4         1.0     0.179533     0.689557     0.556076    Uiso  ? O
   O4         1.0     0.179533     0.689557     0.698933    Uiso  ? O
   O4         1.0     0.179533     0.689557     0.841790    Uiso  ? O
   O4         1.0     0.179533     0.689557     0.984648    Uiso  ? O
   O4         1.0     0.179533     0.939557     0.127505    Uiso  ? O
   O4         1.0     0.179533     0.939557     0.270362    Uiso  ? O
   O4         1.0     0.179533     0.939557     0.413219    Uiso  ? O
   O4         1.0     0.179533     0.939557     0.556076    Uiso  ? O
   O4         1.0     0.179533     0.939557     0.698933    Uiso  ? O
   O4         1.0     0.179533     0.939557     0.841790    Uiso  ? O
   O4         1.0     0.179533     0.939557     0.984648    Uiso  ? O
   O4         1.0     0.512867     0.189557     0.127505    Uiso  ? O
   O4         1.0     0.512867     0.189557     0.270362    Uiso  ? O
   O4         1.0     0.512867     0.189557     0.413219    Uiso  ? O
   O4         1.0     0.512867     0.189557     0.556076    Uiso  ? O
   O4         1.0     0.512867     0.189557     0.698933    Uiso  ? O
   O4         1.0     0.512867     0.189557     0.841790    Uiso  ? O
   O4         1.0     0.512867     0.189557     0.984648    Uiso  ? O
   O4         1.0     0.512867     0.439557     0.127505    Uiso  ? O
   O4         1.0     0.512867     0.439557     0.270362    Uiso  ? O
   O4         1.0     0.512867     0.439557     0.413219    Uiso  ? O
   O4         1.0     0.512867     0.439557     0.556076    Uiso  ? O
   O4         1.0     0.512867     0.439557     0.698933    Uiso  ? O
   O4         1.0     0.512867     0.439557     0.841790    Uiso  ? O
   O4         1.0     0.512867     0.439557     0.984648    Uiso  ? O
   O4         1.0     0.512867     0.689557     0.127505    Uiso  ? O
   O4         1.0     0.512867     0.689557     0.270362    Uiso  ? O
   O4         1.0     0.512867     0.689557     0.413219    Uiso  ? O
   O4         1.0     0.512867     0.689557     0.556076    Uiso  ? O
   O4         1.0     0.512867     0.689557     0.698933    Uiso  ? O
   O4         1.0     0.512867     0.689557     0.841790    Uiso  ? O
   O4         1.0     0.512867     0.689557     0.984648    Uiso  ? O
   O4         1.0     0.512867     0.939557     0.127505    Uiso  ? O
   O4         1.0     0.512867     0.939557     0.270362    Uiso  ? O
   O4         1.0     0.512867     0.939557     0.413219    Uiso  ? O
   O4         1.0     0.512867     0.939557     0.556076    Uiso  ? O
   O4         1.0     0.512867     0.939557     0.698933    Uiso  ? O
   O4         1.0     0.512867     0.939557     0.841790    Uiso  ? O
   O4         1.0     0.512867     0.939557     0.984648    Uiso  ? O
   O4         1.0     0.846200     0.189557     0.127505    Uiso  ? O
   O4         1.0     0.846200     0.189557     0.270362    Uiso  ? O
   O4         1.0     0.846200     0.189557     0.413219    Uiso  ? O
   O4         1.0     0.846200     0.189557     0.556076    Uiso  ? O
   O4         1.0     0.846200     0.189557     0.698933    Uiso  ? O
   O4         1.0     0.846200     0.189557     0.841790    Uiso  ? O
   O4         1.0     0.846200     0.189557     0.984648    Uiso  ? O
   O4         1.0     0.846200     0.439557     0.127505    Uiso  ? O
   O4         1.0     0.846200     0.439557     0.270362    Uiso  ? O
   O4         1.0     0.846200     0.439557     0.413219    Uiso  ? O
   O4         1.0     0.846200     0.439557     0.556076    Uiso  ? O
   O4         1.0     0.846200     0.439557     0.698933    Uiso  ? O
   O4         1.0     0.846200     0.439557     0.841790    Uiso  ? O
   O4         1.0     0.846200     0.439557     0.984648    Uiso  ? O
   O4         1.0     0.846200     0.689557     0.127505    Uiso  ? O
   O4         1.0     0.846200     0.689557     0.270362    Uiso  ? O
   O4         1.0     0.846200     0.689557     0.413219    Uiso  ? O
   O4         1.0     0.846200     0.689557     0.556076    Uiso  ? O
   O4         1.0     0.846200     0.689557     0.698933    Uiso  ? O
   O4         1.0     0.846200     0.689557     0.841790    Uiso  ? O
   O4         1.0     0.846200     0.689557     0.984648    Uiso  ? O
   O4         1.0     0.846200     0.939557     0.127505    Uiso  ? O
   O4         1.0     0.846200     0.939557     0.270362    Uiso  ? O
   O4         1.0     0.846200     0.939557     0.413219    Uiso  ? O
   O4         1.0     0.846200     0.939557     0.556076    Uiso  ? O
   O4         1.0     0.846200     0.939557     0.698933    Uiso  ? O
   O4         1.0     0.846200     0.939557     0.841790    Uiso  ? O
   O4         1.0     0.846200     0.939557     0.984648    Uiso  ? O
   O5         1.0     0.056836     0.092280     0.123754    Uiso  ? O
   O5         1.0     0.056836     0.092280     0.266612    Uiso  ? O
   O5         1.0     0.056836     0.092280     0.409469    Uiso  ? O
   O5         1.0     0.056836     0.092280     0.552326    Uiso  ? O
   O5         1.0     0.056836     0.092280     0.695183    Uiso  ? O
   O5         1.0     0.056836     0.092280     0.838040    Uiso  ? O
   O5         1.0     0.056836     0.092280     0.980897    Uiso  ? O
   O5         1.0     0.056836     0.342280     0.123754    Uiso  ? O
   O5         1.0     0.056836     0.342280     0.266612    Uiso  ? O
   O5         1.0     0.056836     0.342280     0.409469    Uiso  ? O
   O5         1.0     0.056836     0.342280     0.552326    Uiso  ? O
   O5         1.0     0.056836     0.342280     0.695183    Uiso  ? O
   O5         1.0     0.056836     0.342280     0.838040    Uiso  ? O
   O5         1.0     0.056836     0.342280     0.980897    Uiso  ? O
   O5         1.0     0.056836     0.592280     0.123754    Uiso  ? O
   O5         1.0     0.056836     0.592280     0.266612    Uiso  ? O
   O5         1.0     0.056836     0.592280     0.409469    Uiso  ? O
   O5         1.0     0.056836     0.592280     0.552326    Uiso  ? O
   O5         1.0     0.056836     0.592280     0.695183    Uiso  ? O
   O5         1.0     0.056836     0.592280     0.838040    Uiso  ? O
   O5         1.0     0.056836     0.592280     0.980897    Uiso  ? O
   O5         1.0     0.056836     0.842280     0.123754    Uiso  ? O
   O5         1.0     0.056836     0.842280     0.266612    Uiso  ? O
   O5         1.0     0.056836     0.842280     0.409469    Uiso  ? O
   O5         1.0     0.056836     0.842280     0.552326    Uiso  ? O
   O5         1.0     0.056836     0.842280     0.695183    Uiso  ? O
   O5         1.0     0.056836     0.842280     0.838040    Uiso  ? O
   O5         1.0     0.056836     0.842280     0.980897    Uiso  ? O
   O5         1.0     0.390169     0.092280     0.123754    Uiso  ? O
   O5         1.0     0.390169     0.092280     0.266612    Uiso  ? O
   O5         1.0     0.390169     0.092280     0.409469    Uiso  ? O
   O5         1.0     0.390169     0.092280     0.552326    Uiso  ? O
   O5         1.0     0.390169     0.092280     0.695183    Uiso  ? O
   O5         1.0     0.390169     0.092280     0.838040    Uiso  ? O
   O5         1.0     0.390169     0.092280     0.980897    Uiso  ? O
   O5         1.0     0.390169     0.342280     0.123754    Uiso  ? O
   O5         1.0     0.390169     0.342280     0.266612    Uiso  ? O
   O5         1.0     0.390169     0.342280     0.409469    Uiso  ? O
   O5         1.0     0.390169     0.342280     0.552326    Uiso  ? O
   O5         1.0     0.390169     0.342280     0.695183    Uiso  ? O
   O5         1.0     0.390169     0.342280     0.838040    Uiso  ? O
   O5         1.0     0.390169     0.342280     0.980897    Uiso  ? O
   O5         1.0     0.390169     0.592280     0.123754    Uiso  ? O
   O5         1.0     0.390169     0.592280     0.266612    Uiso  ? O
   O5         1.0     0.390169     0.592280     0.409469    Uiso  ? O
   O5         1.0     0.390169     0.592280     0.552326    Uiso  ? O
   O5         1.0     0.390169     0.592280     0.695183    Uiso  ? O
   O5         1.0     0.390169     0.592280     0.838040    Uiso  ? O
   O5         1.0     0.390169     0.592280     0.980897    Uiso  ? O
   O5         1.0     0.390169     0.842280     0.123754    Uiso  ? O
   O5         1.0     0.390169     0.842280     0.266612    Uiso  ? O
   O5         1.0     0.390169     0.842280     0.409469    Uiso  ? O
   O5         1.0     0.390169     0.842280     0.552326    Uiso  ? O
   O5         1.0     0.390169     0.842280     0.695183    Uiso  ? O
   O5         1.0     0.390169     0.842280     0.838040    Uiso  ? O
   O5         1.0     0.390169     0.842280     0.980897    Uiso  ? O
   O5         1.0     0.723502     0.092280     0.123754    Uiso  ? O
   O5         1.0     0.723502     0.092280     0.266612    Uiso  ? O
   O5         1.0     0.723502     0.092280     0.409469    Uiso  ? O
   O5         1.0     0.723502     0.092280     0.552326    Uiso  ? O
   O5         1.0     0.723502     0.092280     0.695183    Uiso  ? O
   O5         1.0     0.723502     0.092280     0.838040    Uiso  ? O
   O5         1.0     0.723502     0.092280     0.980897    Uiso  ? O
   O5         1.0     0.723502     0.342280     0.123754    Uiso  ? O
   O5         1.0     0.723502     0.342280     0.266612    Uiso  ? O
   O5         1.0     0.723502     0.342280     0.409469    Uiso  ? O
   O5         1.0     0.723502     0.342280     0.552326    Uiso  ? O
   O5         1.0     0.723502     0.342280     0.695183    Uiso  ? O
   O5         1.0     0.723502     0.342280     0.838040    Uiso  ? O
   O5         1.0     0.723502     0.342280     0.980897    Uiso  ? O
   O5         1.0     0.723502     0.592280     0.123754    Uiso  ? O
   O5         1.0     0.723502     0.592280     0.266612    Uiso  ? O
   O5         1.0     0.723502     0.592280     0.409469    Uiso  ? O
   O5         1.0     0.723502     0.592280     0.552326    Uiso  ? O
   O5         1.0     0.723502     0.592280     0.695183    Uiso  ? O
   O5         1.0     0.723502     0.592280     0.838040    Uiso  ? O
   O5         1.0     0.723502     0.592280     0.980897    Uiso  ? O
   O5         1.0     0.723502     0.842280     0.123754    Uiso  ? O
   O5         1.0     0.723502     0.842280     0.266612    Uiso  ? O
   O5         1.0     0.723502     0.842280     0.409469    Uiso  ? O
   O5         1.0     0.723502     0.842280     0.552326    Uiso  ? O
   O5         1.0     0.723502     0.842280     0.695183    Uiso  ? O
   O5         1.0     0.723502     0.842280     0.838040    Uiso  ? O
   O5         1.0     0.723502     0.842280     0.980897    Uiso  ? O
   O6         1.0     0.142194     0.060971     0.106310    Uiso  ? O
   O6         1.0     0.142194     0.060971     0.249167    Uiso  ? O
   O6         1.0     0.142194     0.060971     0.392024    Uiso  ? O
   O6         1.0     0.142194     0.060971     0.534881    Uiso  ? O
   O6         1.0     0.142194     0.060971     0.677738    Uiso  ? O
   O6         1.0     0.142194     0.060971     0.820595    Uiso  ? O
   O6         1.0     0.142194     0.060971     0.963452    Uiso  ? O
   O6         1.0     0.142194     0.310971     0.106310    Uiso  ? O
   O6         1.0     0.142194     0.310971     0.249167    Uiso  ? O
   O6         1.0     0.142194     0.310971     0.392024    Uiso  ? O
   O6         1.0     0.142194     0.310971     0.534881    Uiso  ? O
   O6         1.0     0.142194     0.310971     0.677738    Uiso  ? O
   O6         1.0     0.142194     0.310971     0.820595    Uiso  ? O
   O6         1.0     0.142194     0.310971     0.963452    Uiso  ? O
   O6         1.0     0.142194     0.560971     0.106310    Uiso  ? O
   O6         1.0     0.142194     0.560971     0.249167    Uiso  ? O
   O6         1.0     0.142194     0.560971     0.392024    Uiso  ? O
   O6         1.0     0.142194     0.560971     0.534881    Uiso  ? O
   O6         1.0     0.142194     0.560971     0.677738    Uiso  ? O
   O6         1.0     0.142194     0.560971     0.820595    Uiso  ? O
   O6         1.0     0.142194     0.560971     0.963452    Uiso  ? O
   O6         1.0     0.142194     0.810971     0.106310    Uiso  ? O
   O6         1.0     0.142194     0.810971     0.249167    Uiso  ? O
   O6         1.0     0.142194     0.810971     0.392024    Uiso  ? O
   O6         1.0     0.142194     0.810971     0.534881    Uiso  ? O
   O6         1.0     0.142194     0.810971     0.677738    Uiso  ? O
   O6         1.0     0.142194     0.810971     0.820595    Uiso  ? O
   O6         1.0     0.142194     0.810971     0.963452    Uiso  ? O
   O6         1.0     0.475528     0.060971     0.106310    Uiso  ? O
   O6         1.0     0.475528     0.060971     0.249167    Uiso  ? O
   O6         1.0     0.475528     0.060971     0.392024    Uiso  ? O
   O6         1.0     0.475528     0.060971     0.534881    Uiso  ? O
   O6         1.0     0.475528     0.060971     0.677738    Uiso  ? O
   O6         1.0     0.475528     0.060971     0.820595    Uiso  ? O
   O6         1.0     0.475528     0.060971     0.963452    Uiso  ? O
   O6         1.0     0.475528     0.310971     0.106310    Uiso  ? O
   O6         1.0     0.475528     0.310971     0.249167    Uiso  ? O
   O6         1.0     0.475528     0.310971     0.392024    Uiso  ? O
   O6         1.0     0.475528     0.310971     0.534881    Uiso  ? O
   O6         1.0     0.475528     0.310971     0.677738    Uiso  ? O
   O6         1.0     0.475528     0.310971     0.820595    Uiso  ? O
   O6         1.0     0.475528     0.310971     0.963452    Uiso  ? O
   O6         1.0     0.475528     0.560971     0.106310    Uiso  ? O
   O6         1.0     0.475528     0.560971     0.249167    Uiso  ? O
   O6         1.0     0.475528     0.560971     0.392024    Uiso  ? O
   O6         1.0     0.475528     0.560971     0.534881    Uiso  ? O
   O6         1.0     0.475528     0.560971     0.677738    Uiso  ? O
   O6         1.0     0.475528     0.560971     0.820595    Uiso  ? O
   O6         1.0     0.475528     0.560971     0.963452    Uiso  ? O
   O6         1.0     0.475528     0.810971     0.106310    Uiso  ? O
   O6         1.0     0.475528     0.810971     0.249167    Uiso  ? O
   O6         1.0     0.475528     0.810971     0.392024    Uiso  ? O
   O6         1.0     0.475528     0.810971     0.534881    Uiso  ? O
   O6         1.0     0.475528     0.810971     0.677738    Uiso  ? O
   O6         1.0     0.475528     0.810971     0.820595    Uiso  ? O
   O6         1.0     0.475528     0.810971     0.963452    Uiso  ? O
   O6         1.0     0.808861     0.060971     0.106310    Uiso  ? O
   O6         1.0     0.808861     0.060971     0.249167    Uiso  ? O
   O6         1.0     0.808861     0.060971     0.392024    Uiso  ? O
   O6         1.0     0.808861     0.060971     0.534881    Uiso  ? O
   O6         1.0     0.808861     0.060971     0.677738    Uiso  ? O
   O6         1.0     0.808861     0.060971     0.820595    Uiso  ? O
   O6         1.0     0.808861     0.060971     0.963452    Uiso  ? O
   O6         1.0     0.808861     0.310971     0.106310    Uiso  ? O
   O6         1.0     0.808861     0.310971     0.249167    Uiso  ? O
   O6         1.0     0.808861     0.310971     0.392024    Uiso  ? O
   O6         1.0     0.808861     0.310971     0.534881    Uiso  ? O
   O6         1.0     0.808861     0.310971     0.677738    Uiso  ? O
   O6         1.0     0.808861     0.310971     0.820595    Uiso  ? O
   O6         1.0     0.808861     0.310971     0.963452    Uiso  ? O
   O6         1.0     0.808861     0.560971     0.106310    Uiso  ? O
   O6         1.0     0.808861     0.560971     0.249167    Uiso  ? O
   O6         1.0     0.808861     0.560971     0.392024    Uiso  ? O
   O6         1.0     0.808861     0.560971     0.534881    Uiso  ? O
   O6         1.0     0.808861     0.560971     0.677738    Uiso  ? O
   O6         1.0     0.808861     0.560971     0.820595    Uiso  ? O
   O6         1.0     0.808861     0.560971     0.963452    Uiso  ? O
   O6         1.0     0.808861     0.810971     0.106310    Uiso  ? O
   O6         1.0     0.808861     0.810971     0.249167    Uiso  ? O
   O6         1.0     0.808861     0.810971     0.392024    Uiso  ? O
   O6         1.0     0.808861     0.810971     0.534881    Uiso  ? O
   O6         1.0     0.808861     0.810971     0.677738    Uiso  ? O
   O6         1.0     0.808861     0.810971     0.820595    Uiso  ? O
   O6         1.0     0.808861     0.810971     0.963452    Uiso  ? O
   O7         1.0     0.097480     0.064319     0.104272    Uiso  ? O
   O7         1.0     0.097480     0.064319     0.247130    Uiso  ? O
   O7         1.0     0.097480     0.064319     0.389987    Uiso  ? O
   O7         1.0     0.097480     0.064319     0.532844    Uiso  ? O
   O7         1.0     0.097480     0.064319     0.675701    Uiso  ? O
   O7         1.0     0.097480     0.064319     0.818558    Uiso  ? O
   O7         1.0     0.097480     0.064319     0.961415    Uiso  ? O
   O7         1.0     0.097480     0.314319     0.104272    Uiso  ? O
   O7         1.0     0.097480     0.314319     0.247130    Uiso  ? O
   O7         1.0     0.097480     0.314319     0.389987    Uiso  ? O
   O7         1.0     0.097480     0.314319     0.532844    Uiso  ? O
   O7         1.0     0.097480     0.314319     0.675701    Uiso  ? O
   O7         1.0     0.097480     0.314319     0.818558    Uiso  ? O
   O7         1.0     0.097480     0.314319     0.961415    Uiso  ? O
   O7         1.0     0.097480     0.564319     0.104272    Uiso  ? O
   O7         1.0     0.097480     0.564319     0.247130    Uiso  ? O
   O7         1.0     0.097480     0.564319     0.389987    Uiso  ? O
   O7         1.0     0.097480     0.564319     0.532844    Uiso  ? O
   O7         1.0     0.097480     0.564319     0.675701    Uiso  ? O
   O7         1.0     0.097480     0.564319     0.818558    Uiso  ? O
   O7         1.0     0.097480     0.564319     0.961415    Uiso  ? O
   O7         1.0     0.097480     0.814319     0.104272    Uiso  ? O
   O7         1.0     0.097480     0.814319     0.247130    Uiso  ? O
   O7         1.0     0.097480     0.814319     0.389987    Uiso  ? O
   O7         1.0     0.097480     0.814319     0.532844    Uiso  ? O
   O7         1.0     0.097480     0.814319     0.675701    Uiso  ? O
   O7         1.0     0.097480     0.814319     0.818558    Uiso  ? O
   O7         1.0     0.097480     0.814319     0.961415    Uiso  ? O
   O7         1.0     0.430813     0.064319     0.104272    Uiso  ? O
   O7         1.0     0.430813     0.064319     0.247130    Uiso  ? O
   O7         1.0     0.430813     0.064319     0.389987    Uiso  ? O
   O7         1.0     0.430813     0.064319     0.532844    Uiso  ? O
   O7         1.0     0.430813     0.064319     0.675701    Uiso  ? O
   O7         1.0     0.430813     0.064319     0.818558    Uiso  ? O
   O7         1.0     0.430813     0.064319     0.961415    Uiso  ? O
   O7         1.0     0.430813     0.314319     0.104272    Uiso  ? O
   O7         1.0     0.430813     0.314319     0.247130    Uiso  ? O
   O7         1.0     0.430813     0.314319     0.389987    Uiso  ? O
   O7         1.0     0.430813     0.314319     0.532844    Uiso  ? O
   O7         1.0     0.430813     0.314319     0.675701    Uiso  ? O
   O7         1.0     0.430813     0.314319     0.818558    Uiso  ? O
   O7         1.0     0.430813     0.314319     0.961415    Uiso  ? O
   O7         1.0     0.430813     0.564319     0.104272    Uiso  ? O
   O7         1.0     0.430813     0.564319     0.247130    Uiso  ? O
   O7         1.0     0.430813     0.564319     0.389987    Uiso  ? O
   O7         1.0     0.430813     0.564319     0.532844    Uiso  ? O
   O7         1.0     0.430813     0.564319     0.675701    Uiso  ? O
   O7         1.0     0.430813     0.564319     0.818558    Uiso  ? O
   O7         1.0     0.430813     0.564319     0.961415    Uiso  ? O
   O7         1.0     0.430813     0.814319     0.104272    Uiso  ? O
   O7         1.0     0.430813     0.814319     0.247130    Uiso  ? O
   O7         1.0     0.430813     0.814319     0.389987    Uiso  ? O
   O7         1.0     0.430813     0.814319     0.532844    Uiso  ? O
   O7         1.0     0.430813     0.814319     0.675701    Uiso  ? O
   O7         1.0     0.430813     0.814319     0.818558    Uiso  ? O
   O7         1.0     0.430813     0.814319     0.961415    Uiso  ? O
   O7         1.0     0.764147     0.064319     0.104272    Uiso  ? O
   O7         1.0     0.764147     0.064319     0.247130    Uiso  ? O
   O7         1.0     0.764147     0.064319     0.389987    Uiso  ? O
   O7         1.0     0.764147     0.064319     0.532844    Uiso  ? O
   O7         1.0     0.764147     0.064319     0.675701    Uiso  ? O
   O7         1.0     0.764147     0.064319     0.818558    Uiso  ? O
   O7         1.0     0.764147     0.064319     0.961415    Uiso  ? O
   O7         1.0     0.764147     0.314319     0.104272    Uiso  ? O
   O7         1.0     0.764147     0.314319     0.247130    Uiso  ? O
   O7         1.0     0.764147     0.314319     0.389987    Uiso  ? O
   O7         1.0     0.764147     0.314319     0.532844    Uiso  ? O
   O7         1.0     0.764147     0.314319     0.675701    Uiso  ? O
   O7         1.0     0.764147     0.314319     0.818558    Uiso  ? O
   O7         1.0     0.764147     0.314319     0.961415    Uiso  ? O
   O7         1.0     0.764147     0.564319     0.104272    Uiso  ? O
   O7         1.0     0.764147     0.564319     0.247130    Uiso  ? O
   O7         1.0     0.764147     0.564319     0.389987    Uiso  ? O
   O7         1.0     0.764147     0.564319     0.532844    Uiso  ? O
   O7         1.0     0.764147     0.564319     0.675701    Uiso  ? O
   O7         1.0     0.764147     0.564319     0.818558    Uiso  ? O
   O7         1.0     0.764147     0.564319     0.961415    Uiso  ? O
   O7         1.0     0.764147     0.814319     0.104272    Uiso  ? O
   O7         1.0     0.764147     0.814319     0.247130    Uiso  ? O
   O7         1.0     0.764147     0.814319     0.389987    Uiso  ? O
   O7         1.0     0.764147     0.814319     0.532844    Uiso  ? O
   O7         1.0     0.764147     0.814319     0.675701    Uiso  ? O
   O7         1.0     0.764147     0.814319     0.818558    Uiso  ? O
   O7         1.0     0.764147     0.814319     0.961415    Uiso  ? O
   O8         1.0     0.264132     0.185971     0.107953    Uiso  ? O
   O8         1.0     0.264132     0.185971     0.250811    Uiso  ? O
   O8         1.0     0.264132     0.185971     0.393668    Uiso  ? O
   O8         1.0     0.264132     0.185971     0.536525    Uiso  ? O
   O8         1.0     0.264132     0.185971     0.679382    Uiso  ? O
   O8         1.0     0.264132     0.185971     0.822239    Uiso  ? O
   O8         1.0     0.264132     0.185971     0.965096    Uiso  ? O
   O8         1.0     0.264132     0.435971     0.107953    Uiso  ? O
   O8         1.0     0.264132     0.435971     0.250811    Uiso  ? O
   O8         1.0     0.264132     0.435971     0.393668    Uiso  ? O
   O8         1.0     0.264132     0.435971     0.536525    Uiso  ? O
   O8         1.0     0.264132     0.435971     0.679382    Uiso  ? O
   O8         1.0     0.264132     0.435971     0.822239    Uiso  ? O
   O8         1.0     0.264132     0.435971     0.965096    Uiso  ? O
   O8         1.0     0.264132     0.685971     0.107953    Uiso  ? O
   O8         1.0     0.264132     0.685971     0.250811    Uiso  ? O
   O8         1.0     0.264132     0.685971     0.393668    Uiso  ? O
   O8         1.0     0.264132     0.685971     0.536525    Uiso  ? O
   O8         1.0     0.264132     0.685971     0.679382    Uiso  ? O
   O8         1.0     0.264132     0.685971     0.822239    Uiso  ? O
   O8         1.0     0.264132     0.685971     0.965096    Uiso  ? O
   O8         1.0     0.264132     0.935971     0.107953    Uiso  ? O
   O8         1.0     0.264132     0.935971     0.250811    Uiso  ? O
   O8         1.0     0.264132     0.935971     0.393668    Uiso  ? O
   O8         1.0     0.264132     0.935971     0.536525    Uiso  ? O
   O8         1.0     0.264132     0.935971     0.679382    Uiso  ? O
   O8         1.0     0.264132     0.935971     0.822239    Uiso  ? O
   O8         1.0     0.264132     0.935971     0.965096    Uiso  ? O
   O8         1.0     0.597465     0.185971     0.107953    Uiso  ? O
   O8         1.0     0.597465     0.185971     0.250811    Uiso  ? O
   O8         1.0     0.597465     0.185971     0.393668    Uiso  ? O
   O8         1.0     0.597465     0.185971     0.536525    Uiso  ? O
   O8         1.0     0.597465     0.185971     0.679382    Uiso  ? O
   O8         1.0     0.597465     0.185971     0.822239    Uiso  ? O
   O8         1.0     0.597465     0.185971     0.965096    Uiso  ? O
   O8         1.0     0.597465     0.435971     0.107953    Uiso  ? O
   O8         1.0     0.597465     0.435971     0.250811    Uiso  ? O
   O8         1.0     0.597465     0.435971     0.393668    Uiso  ? O
   O8         1.0     0.597465     0.435971     0.536525    Uiso  ? O
   O8         1.0     0.597465     0.435971     0.679382    Uiso  ? O
   O8         1.0     0.597465     0.435971     0.822239    Uiso  ? O
   O8         1.0     0.597465     0.435971     0.965096    Uiso  ? O
   O8         1.0     0.597465     0.685971     0.107953    Uiso  ? O
   O8         1.0     0.597465     0.685971     0.250811    Uiso  ? O
   O8         1.0     0.597465     0.685971     0.393668    Uiso  ? O
   O8         1.0     0.597465     0.685971     0.536525    Uiso  ? O
   O8         1.0     0.597465     0.685971     0.679382    Uiso  ? O
   O8         1.0     0.597465     0.685971     0.822239    Uiso  ? O
   O8         1.0     0.597465     0.685971     0.965096    Uiso  ? O
   O8         1.0     0.597465     0.935971     0.107953    Uiso  ? O
   O8         1.0     0.597465     0.935971     0.250811    Uiso  ? O
   O8         1.0     0.597465     0.935971     0.393668    Uiso  ? O
   O8         1.0     0.597465     0.935971     0.536525    Uiso  ? O
   O8         1.0     0.597465     0.935971     0.679382    Uiso  ? O
   O8         1.0     0.597465     0.935971     0.822239    Uiso  ? O
   O8         1.0     0.597465     0.935971     0.965096    Uiso  ? O
   O8         1.0     0.930799     0.185971     0.107953    Uiso  ? O
   O8         1.0     0.930799     0.185971     0.250811    Uiso  ? O
   O8         1.0     0.930799     0.185971     0.393668    Uiso  ? O
   O8         1.0     0.930799     0.185971     0.536525    Uiso  ? O
   O8         1.0     0.930799     0.185971     0.679382    Uiso  ? O
   O8         1.0     0.930799     0.185971     0.822239    Uiso  ? O
   O8         1.0     0.930799     0.185971     0.965096    Uiso  ? O
   O8         1.0     0.930799     0.435971     0.107953    Uiso  ? O
   O8         1.0     0.930799     0.435971     0.250811    Uiso  ? O
   O8         1.0     0.930799     0.435971     0.393668    Uiso  ? O
   O8         1.0     0.930799     0.435971     0.536525    Uiso  ? O
   O8         1.0     0.930799     0.435971     0.679382    Uiso  ? O
   O8         1.0     0.930799     0.435971     0.822239    Uiso  ? O
   O8         1.0     0.930799     0.435971     0.965096    Uiso  ? O
   O8         1.0     0.930799     0.685971     0.107953    Uiso  ? O
   O8         1.0     0.930799     0.685971     0.250811    Uiso  ? O
   O8         1.0     0.930799     0.685971     0.393668    Uiso  ? O
   O8         1.0     0.930799     0.685971     0.536525    Uiso  ? O
   O8         1.0     0.930799     0.685971     0.679382    Uiso  ? O
   O8         1.0     0.930799     0.685971     0.822239    Uiso  ? O
   O8         1.0     0.930799     0.685971     0.965096    Uiso  ? O
   O8         1.0     0.930799     0.935971     0.107953    Uiso  ? O
   O8         1.0     0.930799     0.935971     0.250811    Uiso  ? O
   O8         1.0     0.930799     0.935971     0.393668    Uiso  ? O
   O8         1.0     0.930799     0.935971     0.536525    Uiso  ? O
   O8         1.0     0.930799     0.935971     0.679382    Uiso  ? O
   O8         1.0     0.930799     0.935971     0.822239    Uiso  ? O
   O8         1.0     0.930799     0.935971     0.965096    Uiso  ? O
   O9         1.0     0.308887     0.189507     0.105549    Uiso  ? O
   O9         1.0     0.308887     0.189507     0.248406    Uiso  ? O
   O9         1.0     0.308887     0.189507     0.391264    Uiso  ? O
   O9         1.0     0.308887     0.189507     0.534121    Uiso  ? O
   O9         1.0     0.308887     0.189507     0.676978    Uiso  ? O
   O9         1.0     0.308887     0.189507     0.819835    Uiso  ? O
   O9         1.0     0.308887     0.189507     0.962692    Uiso  ? O
   O9         1.0     0.308887     0.439507     0.105549    Uiso  ? O
   O9         1.0     0.308887     0.439507     0.248406    Uiso  ? O
   O9         1.0     0.308887     0.439507     0.391264    Uiso  ? O
   O9         1.0     0.308887     0.439507     0.534121    Uiso  ? O
   O9         1.0     0.308887     0.439507     0.676978    Uiso  ? O
   O9         1.0     0.308887     0.439507     0.819835    Uiso  ? O
   O9         1.0     0.308887     0.439507     0.962692    Uiso  ? O
   O9         1.0     0.308887     0.689507     0.105549    Uiso  ? O
   O9         1.0     0.308887     0.689507     0.248406    Uiso  ? O
   O9         1.0     0.308887     0.689507     0.391264    Uiso  ? O
   O9         1.0     0.308887     0.689507     0.534121    Uiso  ? O
   O9         1.0     0.308887     0.689507     0.676978    Uiso  ? O
   O9         1.0     0.308887     0.689507     0.819835    Uiso  ? O
   O9         1.0     0.308887     0.689507     0.962692    Uiso  ? O
   O9         1.0     0.308887     0.939507     0.105549    Uiso  ? O
   O9         1.0     0.308887     0.939507     0.248406    Uiso  ? O
   O9         1.0     0.308887     0.939507     0.391264    Uiso  ? O
   O9         1.0     0.308887     0.939507     0.534121    Uiso  ? O
   O9         1.0     0.308887     0.939507     0.676978    Uiso  ? O
   O9         1.0     0.308887     0.939507     0.819835    Uiso  ? O
   O9         1.0     0.308887     0.939507     0.962692    Uiso  ? O
   O9         1.0     0.642220     0.189507     0.105549    Uiso  ? O
   O9         1.0     0.642220     0.189507     0.248406    Uiso  ? O
   O9         1.0     0.642220     0.189507     0.391264    Uiso  ? O
   O9         1.0     0.642220     0.189507     0.534121    Uiso  ? O
   O9         1.0     0.642220     0.189507     0.676978    Uiso  ? O
   O9         1.0     0.642220     0.189507     0.819835    Uiso  ? O
   O9         1.0     0.642220     0.189507     0.962692    Uiso  ? O
   O9         1.0     0.642220     0.439507     0.105549    Uiso  ? O
   O9         1.0     0.642220     0.439507     0.248406    Uiso  ? O
   O9         1.0     0.642220     0.439507     0.391264    Uiso  ? O
   O9         1.0     0.642220     0.439507     0.534121    Uiso  ? O
   O9         1.0     0.642220     0.439507     0.676978    Uiso  ? O
   O9         1.0     0.642220     0.439507     0.819835    Uiso  ? O
   O9         1.0     0.642220     0.439507     0.962692    Uiso  ? O
   O9         1.0     0.642220     0.689507     0.105549    Uiso  ? O
   O9         1.0     0.642220     0.689507     0.248406    Uiso  ? O
   O9         1.0     0.642220     0.689507     0.391264    Uiso  ? O
   O9         1.0     0.642220     0.689507     0.534121    Uiso  ? O
   O9         1.0     0.642220     0.689507     0.676978    Uiso  ? O
   O9         1.0     0.642220     0.689507     0.819835    Uiso  ? O
   O9         1.0     0.642220     0.689507     0.962692    Uiso  ? O
   O9         1.0     0.642220     0.939507     0.105549    Uiso  ? O
   O9         1.0     0.642220     0.939507     0.248406    Uiso  ? O
   O9         1.0     0.642220     0.939507     0.391264    Uiso  ? O
   O9         1.0     0.642220     0.939507     0.534121    Uiso  ? O
   O9         1.0     0.642220     0.939507     0.676978    Uiso  ? O
   O9         1.0     0.642220     0.939507     0.819835    Uiso  ? O
   O9         1.0     0.642220     0.939507     0.962692    Uiso  ? O
   O9         1.0     0.975554     0.189507     0.105549    Uiso  ? O
   O9         1.0     0.975554     0.189507     0.248406    Uiso  ? O
   O9         1.0     0.975554     0.189507     0.391264    Uiso  ? O
   O9         1.0     0.975554     0.189507     0.534121    Uiso  ? O
   O9         1.0     0.975554     0.189507     0.676978    Uiso  ? O
   O9         1.0     0.975554     0.189507     0.819835    Uiso  ? O
   O9         1.0     0.975554     0.189507     0.962692    Uiso  ? O
   O9         1.0     0.975554     0.439507     0.105549    Uiso  ? O
   O9         1.0     0.975554     0.439507     0.248406    Uiso  ? O
   O9         1.0     0.975554     0.439507     0.391264    Uiso  ? O
   O9         1.0     0.975554     0.439507     0.534121    Uiso  ? O
   O9         1.0     0.975554     0.439507     0.676978    Uiso  ? O
   O9         1.0     0.975554     0.439507     0.819835    Uiso  ? O
   O9         1.0     0.975554     0.439507     0.962692    Uiso  ? O
   O9         1.0     0.975554     0.689507     0.105549    Uiso  ? O
   O9         1.0     0.975554     0.689507     0.248406    Uiso  ? O
   O9         1.0     0.975554     0.689507     0.391264    Uiso  ? O
   O9         1.0     0.975554     0.689507     0.534121    Uiso  ? O
   O9         1.0     0.975554     0.689507     0.676978    Uiso  ? O
   O9         1.0     0.975554     0.689507     0.819835    Uiso  ? O
   O9         1.0     0.975554     0.689507     0.962692    Uiso  ? O
   O9         1.0     0.975554     0.939507     0.105549    Uiso  ? O
   O9         1.0     0.975554     0.939507     0.248406    Uiso  ? O
   O9         1.0     0.975554     0.939507     0.391264    Uiso  ? O
   O9         1.0     0.975554     0.939507     0.534121    Uiso  ? O
   O9         1.0     0.975554     0.939507     0.676978    Uiso  ? O
   O9         1.0     0.975554     0.939507     0.819835    Uiso  ? O
   O9         1.0     0.975554     0.939507     0.962692    Uiso  ? O
   O10        1.0     0.223653     0.214353     0.089047    Uiso  ? O
   O10        1.0     0.223653     0.214353     0.231904    Uiso  ? O
   O10        1.0     0.223653     0.214353     0.374761    Uiso  ? O
   O10        1.0     0.223653     0.214353     0.517618    Uiso  ? O
   O10        1.0     0.223653     0.214353     0.660475    Uiso  ? O
   O10        1.0     0.223653     0.214353     0.803332    Uiso  ? O
   O10        1.0     0.223653     0.214353     0.946189    Uiso  ? O
   O10        1.0     0.223653     0.464353     0.089047    Uiso  ? O
   O10        1.0     0.223653     0.464353     0.231904    Uiso  ? O
   O10        1.0     0.223653     0.464353     0.374761    Uiso  ? O
   O10        1.0     0.223653     0.464353     0.517618    Uiso  ? O
   O10        1.0     0.223653     0.464353     0.660475    Uiso  ? O
   O10        1.0     0.223653     0.464353     0.803332    Uiso  ? O
   O10        1.0     0.223653     0.464353     0.946189    Uiso  ? O
   O10        1.0     0.223653     0.714353     0.089047    Uiso  ? O
   O10        1.0     0.223653     0.714353     0.231904    Uiso  ? O
   O10        1.0     0.223653     0.714353     0.374761    Uiso  ? O
   O10        1.0     0.223653     0.714353     0.517618    Uiso  ? O
   O10        1.0     0.223653     0.714353     0.660475    Uiso  ? O
   O10        1.0     0.223653     0.714353     0.803332    Uiso  ? O
   O10        1.0     0.223653     0.714353     0.946189    Uiso  ? O
   O10        1.0     0.223653     0.964353     0.089047    Uiso  ? O
   O10        1.0     0.223653     0.964353     0.231904    Uiso  ? O
   O10        1.0     0.223653     0.964353     0.374761    Uiso  ? O
   O10        1.0     0.223653     0.964353     0.517618    Uiso  ? O
   O10        1.0     0.223653     0.964353     0.660475    Uiso  ? O
   O10        1.0     0.223653     0.964353     0.803332    Uiso  ? O
   O10        1.0     0.223653     0.964353     0.946189    Uiso  ? O
   O10        1.0     0.556986     0.214353     0.089047    Uiso  ? O
   O10        1.0     0.556986     0.214353     0.231904    Uiso  ? O
   O10        1.0     0.556986     0.214353     0.374761    Uiso  ? O
   O10        1.0     0.556986     0.214353     0.517618    Uiso  ? O
   O10        1.0     0.556986     0.214353     0.660475    Uiso  ? O
   O10        1.0     0.556986     0.214353     0.803332    Uiso  ? O
   O10        1.0     0.556986     0.214353     0.946189    Uiso  ? O
   O10        1.0     0.556986     0.464353     0.089047    Uiso  ? O
   O10        1.0     0.556986     0.464353     0.231904    Uiso  ? O
   O10        1.0     0.556986     0.464353     0.374761    Uiso  ? O
   O10        1.0     0.556986     0.464353     0.517618    Uiso  ? O
   O10        1.0     0.556986     0.464353     0.660475    Uiso  ? O
   O10        1.0     0.556986     0.464353     0.803332    Uiso  ? O
   O10        1.0     0.556986     0.464353     0.946189    Uiso  ? O
   O10        1.0     0.556986     0.714353     0.089047    Uiso  ? O
   O10        1.0     0.556986     0.714353     0.231904    Uiso  ? O
   O10        1.0     0.556986     0.714353     0.374761    Uiso  ? O
   O10        1.0     0.556986     0.714353     0.517618    Uiso  ? O
   O10        1.0     0.556986     0.714353     0.660475    Uiso  ? O
   O10        1.0     0.556986     0.714353     0.803332    Uiso  ? O
   O10        1.0     0.556986     0.714353     0.946189    Uiso  ? O
   O10        1.0     0.556986     0.964353     0.089047    Uiso  ? O
   O10        1.0     0.556986     0.964353     0.231904    Uiso  ? O
   O10        1.0     0.556986     0.964353     0.374761    Uiso  ? O
   O10        1.0     0.556986     0.964353     0.517618    Uiso  ? O
   O10        1.0     0.556986     0.964353     0.660475    Uiso  ? O
   O10        1.0     0.556986     0.964353     0.803332    Uiso  ? O
   O10        1.0     0.556986     0.964353     0.946189    Uiso  ? O
   O10        1.0     0.890319     0.214353     0.089047    Uiso  ? O
   O10        1.0     0.890319     0.214353     0.231904    Uiso  ? O
   O10        1.0     0.890319     0.214353     0.374761    Uiso  ? O
   O10        1.0     0.890319     0.214353     0.517618    Uiso  ? O
   O10        1.0     0.890319     0.214353     0.660475    Uiso  ? O
   O10        1.0     0.890319     0.214353     0.803332    Uiso  ? O
   O10        1.0     0.890319     0.214353     0.946189    Uiso  ? O
   O10        1.0     0.890319     0.464353     0.089047    Uiso  ? O
   O10        1.0     0.890319     0.464353     0.231904    Uiso  ? O
   O10        1.0     0.890319     0.464353     0.374761    Uiso  ? O
   O10        1.0     0.890319     0.464353     0.517618    Uiso  ? O
   O10        1.0     0.890319     0.464353     0.660475    Uiso  ? O
   O10        1.0     0.890319     0.464353     0.803332    Uiso  ? O
   O10        1.0     0.890319     0.464353     0.946189    Uiso  ? O
   O10        1.0     0.890319     0.714353     0.089047    Uiso  ? O
   O10        1.0     0.890319     0.714353     0.231904    Uiso  ? O
   O10        1.0     0.890319     0.714353     0.374761    Uiso  ? O
   O10        1.0     0.890319     0.714353     0.517618    Uiso  ? O
   O10        1.0     0.890319     0.714353     0.660475    Uiso  ? O
   O10        1.0     0.890319     0.714353     0.803332    Uiso  ? O
   O10        1.0     0.890319     0.714353     0.946189    Uiso  ? O
   O10        1.0     0.890319     0.964353     0.089047    Uiso  ? O
   O10        1.0     0.890319     0.964353     0.231904    Uiso  ? O
   O10        1.0     0.890319     0.964353     0.374761    Uiso  ? O
   O10        1.0     0.890319     0.964353     0.517618    Uiso  ? O
   O10        1.0     0.890319     0.964353     0.660475    Uiso  ? O
   O10        1.0     0.890319     0.964353     0.803332    Uiso  ? O
   O10        1.0     0.890319     0.964353     0.946189    Uiso  ? O
   O11        1.0     0.013310     0.061945     0.083261    Uiso  ? O
   O11        1.0     0.013310     0.061945     0.226118    Uiso  ? O
   O11        1.0     0.013310     0.061945     0.368975    Uiso  ? O
   O11        1.0     0.013310     0.061945     0.511833    Uiso  ? O
   O11        1.0     0.013310     0.061945     0.654690    Uiso  ? O
   O11        1.0     0.013310     0.061945     0.797547    Uiso  ? O
   O11        1.0     0.013310     0.061945     0.940404    Uiso  ? O
   O11        1.0     0.013310     0.311945     0.083261    Uiso  ? O
   O11        1.0     0.013310     0.311945     0.226118    Uiso  ? O
   O11        1.0     0.013310     0.311945     0.368975    Uiso  ? O
   O11        1.0     0.013310     0.311945     0.511833    Uiso  ? O
   O11        1.0     0.013310     0.311945     0.654690    Uiso  ? O
   O11        1.0     0.013310     0.311945     0.797547    Uiso  ? O
   O11        1.0     0.013310     0.311945     0.940404    Uiso  ? O
   O11        1.0     0.013310     0.561945     0.083261    Uiso  ? O
   O11        1.0     0.013310     0.561945     0.226118    Uiso  ? O
   O11        1.0     0.013310     0.561945     0.368975    Uiso  ? O
   O11        1.0     0.013310     0.561945     0.511833    Uiso  ? O
   O11        1.0     0.013310     0.561945     0.654690    Uiso  ? O
   O11        1.0     0.013310     0.561945     0.797547    Uiso  ? O
   O11        1.0     0.013310     0.561945     0.940404    Uiso  ? O
   O11        1.0     0.013310     0.811945     0.083261    Uiso  ? O
   O11        1.0     0.013310     0.811945     0.226118    Uiso  ? O
   O11        1.0     0.013310     0.811945     0.368975    Uiso  ? O
   O11        1.0     0.013310     0.811945     0.511833    Uiso  ? O
   O11        1.0     0.013310     0.811945     0.654690    Uiso  ? O
   O11        1.0     0.013310     0.811945     0.797547    Uiso  ? O
   O11        1.0     0.013310     0.811945     0.940404    Uiso  ? O
   O11        1.0     0.346643     0.061945     0.083261    Uiso  ? O
   O11        1.0     0.346643     0.061945     0.226118    Uiso  ? O
   O11        1.0     0.346643     0.061945     0.368975    Uiso  ? O
   O11        1.0     0.346643     0.061945     0.511833    Uiso  ? O
   O11        1.0     0.346643     0.061945     0.654690    Uiso  ? O
   O11        1.0     0.346643     0.061945     0.797547    Uiso  ? O
   O11        1.0     0.346643     0.061945     0.940404    Uiso  ? O
   O11        1.0     0.346643     0.311945     0.083261    Uiso  ? O
   O11        1.0     0.346643     0.311945     0.226118    Uiso  ? O
   O11        1.0     0.346643     0.311945     0.368975    Uiso  ? O
   O11        1.0     0.346643     0.311945     0.511833    Uiso  ? O
   O11        1.0     0.346643     0.311945     0.654690    Uiso  ? O
   O11        1.0     0.346643     0.311945     0.797547    Uiso  ? O
   O11        1.0     0.346643     0.311945     0.940404    Uiso  ? O
   O11        1.0     0.346643     0.561945     0.083261    Uiso  ? O
   O11        1.0     0.346643     0.561945     0.226118    Uiso  ? O
   O11        1.0     0.346643     0.561945     0.368975    Uiso  ? O
   O11        1.0     0.346643     0.561945     0.511833    Uiso  ? O
   O11        1.0     0.346643     0.561945     0.654690    Uiso  ? O
   O11        1.0     0.346643     0.561945     0.797547    Uiso  ? O
   O11        1.0     0.346643     0.561945     0.940404    Uiso  ? O
   O11        1.0     0.346643     0.811945     0.083261    Uiso  ? O
   O11        1.0     0.346643     0.811945     0.226118    Uiso  ? O
   O11        1.0     0.346643     0.811945     0.368975    Uiso  ? O
   O11        1.0     0.346643     0.811945     0.511833    Uiso  ? O
   O11        1.0     0.346643     0.811945     0.654690    Uiso  ? O
   O11        1.0     0.346643     0.811945     0.797547    Uiso  ? O
   O11        1.0     0.346643     0.811945     0.940404    Uiso  ? O
   O11        1.0     0.679976     0.061945     0.083261    Uiso  ? O
   O11        1.0     0.679976     0.061945     0.226118    Uiso  ? O
   O11        1.0     0.679976     0.061945     0.368975    Uiso  ? O
   O11        1.0     0.679976     0.061945     0.511833    Uiso  ? O
   O11        1.0     0.679976     0.061945     0.654690    Uiso  ? O
   O11        1.0     0.679976     0.061945     0.797547    Uiso  ? O
   O11        1.0     0.679976     0.061945     0.940404    Uiso  ? O
   O11        1.0     0.679976     0.311945     0.083261    Uiso  ? O
   O11        1.0     0.679976     0.311945     0.226118    Uiso  ? O
   O11        1.0     0.679976     0.311945     0.368975    Uiso  ? O
   O11        1.0     0.679976     0.311945     0.511833    Uiso  ? O
   O11        1.0     0.679976     0.311945     0.654690    Uiso  ? O
   O11        1.0     0.679976     0.311945     0.797547    Uiso  ? O
   O11        1.0     0.679976     0.311945     0.940404    Uiso  ? O
   O11        1.0     0.679976     0.561945     0.083261    Uiso  ? O
   O11        1.0     0.679976     0.561945     0.226118    Uiso  ? O
   O11        1.0     0.679976     0.561945     0.368975    Uiso  ? O
   O11        1.0     0.679976     0.561945     0.511833    Uiso  ? O
   O11        1.0     0.679976     0.561945     0.654690    Uiso  ? O
   O11        1.0     0.679976     0.561945     0.797547    Uiso  ? O
   O11        1.0     0.679976     0.561945     0.940404    Uiso  ? O
   O11        1.0     0.679976     0.811945     0.083261    Uiso  ? O
   O11        1.0     0.679976     0.811945     0.226118    Uiso  ? O
   O11        1.0     0.679976     0.811945     0.368975    Uiso  ? O
   O11        1.0     0.679976     0.811945     0.511833    Uiso  ? O
   O11        1.0     0.679976     0.811945     0.654690    Uiso  ? O
   O11        1.0     0.679976     0.811945     0.797547    Uiso  ? O
   O11        1.0     0.679976     0.811945     0.940404    Uiso  ? O
   O12        1.0     0.224109     0.157405     0.087373    Uiso  ? O
   O12        1.0     0.224109     0.157405     0.230230    Uiso  ? O
   O12        1.0     0.224109     0.157405     0.373087    Uiso  ? O
   O12        1.0     0.224109     0.157405     0.515944    Uiso  ? O
   O12        1.0     0.224109     0.157405     0.658801    Uiso  ? O
   O12        1.0     0.224109     0.157405     0.801658    Uiso  ? O
   O12        1.0     0.224109     0.157405     0.944515    Uiso  ? O
   O12        1.0     0.224109     0.407405     0.087373    Uiso  ? O
   O12        1.0     0.224109     0.407405     0.230230    Uiso  ? O
   O12        1.0     0.224109     0.407405     0.373087    Uiso  ? O
   O12        1.0     0.224109     0.407405     0.515944    Uiso  ? O
   O12        1.0     0.224109     0.407405     0.658801    Uiso  ? O
   O12        1.0     0.224109     0.407405     0.801658    Uiso  ? O
   O12        1.0     0.224109     0.407405     0.944515    Uiso  ? O
   O12        1.0     0.224109     0.657405     0.087373    Uiso  ? O
   O12        1.0     0.224109     0.657405     0.230230    Uiso  ? O
   O12        1.0     0.224109     0.657405     0.373087    Uiso  ? O
   O12        1.0     0.224109     0.657405     0.515944    Uiso  ? O
   O12        1.0     0.224109     0.657405     0.658801    Uiso  ? O
   O12        1.0     0.224109     0.657405     0.801658    Uiso  ? O
   O12        1.0     0.224109     0.657405     0.944515    Uiso  ? O
   O12        1.0     0.224109     0.907405     0.087373    Uiso  ? O
   O12        1.0     0.224109     0.907405     0.230230    Uiso  ? O
   O12        1.0     0.224109     0.907405     0.373087    Uiso  ? O
   O12        1.0     0.224109     0.907405     0.515944    Uiso  ? O
   O12        1.0     0.224109     0.907405     0.658801    Uiso  ? O
   O12        1.0     0.224109     0.907405     0.801658    Uiso  ? O
   O12        1.0     0.224109     0.907405     0.944515    Uiso  ? O
   O12        1.0     0.557442     0.157405     0.087373    Uiso  ? O
   O12        1.0     0.557442     0.157405     0.230230    Uiso  ? O
   O12        1.0     0.557442     0.157405     0.373087    Uiso  ? O
   O12        1.0     0.557442     0.157405     0.515944    Uiso  ? O
   O12        1.0     0.557442     0.157405     0.658801    Uiso  ? O
   O12        1.0     0.557442     0.157405     0.801658    Uiso  ? O
   O12        1.0     0.557442     0.157405     0.944515    Uiso  ? O
   O12        1.0     0.557442     0.407405     0.087373    Uiso  ? O
   O12        1.0     0.557442     0.407405     0.230230    Uiso  ? O
   O12        1.0     0.557442     0.407405     0.373087    Uiso  ? O
   O12        1.0     0.557442     0.407405     0.515944    Uiso  ? O
   O12        1.0     0.557442     0.407405     0.658801    Uiso  ? O
   O12        1.0     0.557442     0.407405     0.801658    Uiso  ? O
   O12        1.0     0.557442     0.407405     0.944515    Uiso  ? O
   O12        1.0     0.557442     0.657405     0.087373    Uiso  ? O
   O12        1.0     0.557442     0.657405     0.230230    Uiso  ? O
   O12        1.0     0.557442     0.657405     0.373087    Uiso  ? O
   O12        1.0     0.557442     0.657405     0.515944    Uiso  ? O
   O12        1.0     0.557442     0.657405     0.658801    Uiso  ? O
   O12        1.0     0.557442     0.657405     0.801658    Uiso  ? O
   O12        1.0     0.557442     0.657405     0.944515    Uiso  ? O
   O12        1.0     0.557442     0.907405     0.087373    Uiso  ? O
   O12        1.0     0.557442     0.907405     0.230230    Uiso  ? O
   O12        1.0     0.557442     0.907405     0.373087    Uiso  ? O
   O12        1.0     0.557442     0.907405     0.515944    Uiso  ? O
   O12        1.0     0.557442     0.907405     0.658801    Uiso  ? O
   O12        1.0     0.557442     0.907405     0.801658    Uiso  ? O
   O12        1.0     0.557442     0.907405     0.944515    Uiso  ? O
   O12        1.0     0.890776     0.157405     0.087373    Uiso  ? O
   O12        1.0     0.890776     0.157405     0.230230    Uiso  ? O
   O12        1.0     0.890776     0.157405     0.373087    Uiso  ? O
   O12        1.0     0.890776     0.157405     0.515944    Uiso  ? O
   O12        1.0     0.890776     0.157405     0.658801    Uiso  ? O
   O12        1.0     0.890776     0.157405     0.801658    Uiso  ? O
   O12        1.0     0.890776     0.157405     0.944515    Uiso  ? O
   O12        1.0     0.890776     0.407405     0.087373    Uiso  ? O
   O12        1.0     0.890776     0.407405     0.230230    Uiso  ? O
   O12        1.0     0.890776     0.407405     0.373087    Uiso  ? O
   O12        1.0     0.890776     0.407405     0.515944    Uiso  ? O
   O12        1.0     0.890776     0.407405     0.658801    Uiso  ? O
   O12        1.0     0.890776     0.407405     0.801658    Uiso  ? O
   O12        1.0     0.890776     0.407405     0.944515    Uiso  ? O
   O12        1.0     0.890776     0.657405     0.087373    Uiso  ? O
   O12        1.0     0.890776     0.657405     0.230230    Uiso  ? O
   O12        1.0     0.890776     0.657405     0.373087    Uiso  ? O
   O12        1.0     0.890776     0.657405     0.515944    Uiso  ? O
   O12        1.0     0.890776     0.657405     0.658801    Uiso  ? O
   O12        1.0     0.890776     0.657405     0.801658    Uiso  ? O
   O12        1.0     0.890776     0.657405     0.944515    Uiso  ? O
   O12        1.0     0.890776     0.907405     0.087373    Uiso  ? O
   O12        1.0     0.890776     0.907405     0.230230    Uiso  ? O
   O12        1.0     0.890776     0.907405     0.373087    Uiso  ? O
   O12        1.0     0.890776     0.907405     0.515944    Uiso  ? O
   O12        1.0     0.890776     0.907405     0.658801    Uiso  ? O
   O12        1.0     0.890776     0.907405     0.801658    Uiso  ? O
   O12        1.0     0.890776     0.907405     0.944515    Uiso  ? O
   O13        1.0     0.062806     0.036250     0.080134    Uiso  ? O
   O13        1.0     0.062806     0.036250     0.222991    Uiso  ? O
   O13        1.0     0.062806     0.036250     0.365848    Uiso  ? O
   O13        1.0     0.062806     0.036250     0.508705    Uiso  ? O
   O13        1.0     0.062806     0.036250     0.651563    Uiso  ? O
   O13        1.0     0.062806     0.036250     0.794420    Uiso  ? O
   O13        1.0     0.062806     0.036250     0.937277    Uiso  ? O
   O13        1.0     0.062806     0.286250     0.080134    Uiso  ? O
   O13        1.0     0.062806     0.286250     0.222991    Uiso  ? O
   O13        1.0     0.062806     0.286250     0.365848    Uiso  ? O
   O13        1.0     0.062806     0.286250     0.508705    Uiso  ? O
   O13        1.0     0.062806     0.286250     0.651563    Uiso  ? O
   O13        1.0     0.062806     0.286250     0.794420    Uiso  ? O
   O13        1.0     0.062806     0.286250     0.937277    Uiso  ? O
   O13        1.0     0.062806     0.536250     0.080134    Uiso  ? O
   O13        1.0     0.062806     0.536250     0.222991    Uiso  ? O
   O13        1.0     0.062806     0.536250     0.365848    Uiso  ? O
   O13        1.0     0.062806     0.536250     0.508705    Uiso  ? O
   O13        1.0     0.062806     0.536250     0.651563    Uiso  ? O
   O13        1.0     0.062806     0.536250     0.794420    Uiso  ? O
   O13        1.0     0.062806     0.536250     0.937277    Uiso  ? O
   O13        1.0     0.062806     0.786250     0.080134    Uiso  ? O
   O13        1.0     0.062806     0.786250     0.222991    Uiso  ? O
   O13        1.0     0.062806     0.786250     0.365848    Uiso  ? O
   O13        1.0     0.062806     0.786250     0.508705    Uiso  ? O
   O13        1.0     0.062806     0.786250     0.651563    Uiso  ? O
   O13        1.0     0.062806     0.786250     0.794420    Uiso  ? O
   O13        1.0     0.062806     0.786250     0.937277    Uiso  ? O
   O13        1.0     0.396140     0.036250     0.080134    Uiso  ? O
   O13        1.0     0.396140     0.036250     0.222991    Uiso  ? O
   O13        1.0     0.396140     0.036250     0.365848    Uiso  ? O
   O13        1.0     0.396140     0.036250     0.508705    Uiso  ? O
   O13        1.0     0.396140     0.036250     0.651563    Uiso  ? O
   O13        1.0     0.396140     0.036250     0.794420    Uiso  ? O
   O13        1.0     0.396140     0.036250     0.937277    Uiso  ? O
   O13        1.0     0.396140     0.286250     0.080134    Uiso  ? O
   O13        1.0     0.396140     0.286250     0.222991    Uiso  ? O
   O13        1.0     0.396140     0.286250     0.365848    Uiso  ? O
   O13        1.0     0.396140     0.286250     0.508705    Uiso  ? O
   O13        1.0     0.396140     0.286250     0.651563    Uiso  ? O
   O13        1.0     0.396140     0.286250     0.794420    Uiso  ? O
   O13        1.0     0.396140     0.286250     0.937277    Uiso  ? O
   O13        1.0     0.396140     0.536250     0.080134    Uiso  ? O
   O13        1.0     0.396140     0.536250     0.222991    Uiso  ? O
   O13        1.0     0.396140     0.536250     0.365848    Uiso  ? O
   O13        1.0     0.396140     0.536250     0.508705    Uiso  ? O
   O13        1.0     0.396140     0.536250     0.651563    Uiso  ? O
   O13        1.0     0.396140     0.536250     0.794420    Uiso  ? O
   O13        1.0     0.396140     0.536250     0.937277    Uiso  ? O
   O13        1.0     0.396140     0.786250     0.080134    Uiso  ? O
   O13        1.0     0.396140     0.786250     0.222991    Uiso  ? O
   O13        1.0     0.396140     0.786250     0.365848    Uiso  ? O
   O13        1.0     0.396140     0.786250     0.508705    Uiso  ? O
   O13        1.0     0.396140     0.786250     0.651563    Uiso  ? O
   O13        1.0     0.396140     0.786250     0.794420    Uiso  ? O
   O13        1.0     0.396140     0.786250     0.937277    Uiso  ? O
   O13        1.0     0.729473     0.036250     0.080134    Uiso  ? O
   O13        1.0     0.729473     0.036250     0.222991    Uiso  ? O
   O13        1.0     0.729473     0.036250     0.365848    Uiso  ? O
   O13        1.0     0.729473     0.036250     0.508705    Uiso  ? O
   O13        1.0     0.729473     0.036250     0.651563    Uiso  ? O
   O13        1.0     0.729473     0.036250     0.794420    Uiso  ? O
   O13        1.0     0.729473     0.036250     0.937277    Uiso  ? O
   O13        1.0     0.729473     0.286250     0.080134    Uiso  ? O
   O13        1.0     0.729473     0.286250     0.222991    Uiso  ? O
   O13        1.0     0.729473     0.286250     0.365848    Uiso  ? O
   O13        1.0     0.729473     0.286250     0.508705    Uiso  ? O
   O13        1.0     0.729473     0.286250     0.651563    Uiso  ? O
   O13        1.0     0.729473     0.286250     0.794420    Uiso  ? O
   O13        1.0     0.729473     0.286250     0.937277    Uiso  ? O
   O13        1.0     0.729473     0.536250     0.080134    Uiso  ? O
   O13        1.0     0.729473     0.536250     0.222991    Uiso  ? O
   O13        1.0     0.729473     0.536250     0.365848    Uiso  ? O
   O13        1.0     0.729473     0.536250     0.508705    Uiso  ? O
   O13        1.0     0.729473     0.536250     0.651563    Uiso  ? O
   O13        1.0     0.729473     0.536250     0.794420    Uiso  ? O
   O13        1.0     0.729473     0.536250     0.937277    Uiso  ? O
   O13        1.0     0.729473     0.786250     0.080134    Uiso  ? O
   O13        1.0     0.729473     0.786250     0.222991    Uiso  ? O
   O13        1.0     0.729473     0.786250     0.365848    Uiso  ? O
   O13        1.0     0.729473     0.786250     0.508705    Uiso  ? O
   O13        1.0     0.729473     0.786250     0.651563    Uiso  ? O
   O13        1.0     0.729473     0.786250     0.794420    Uiso  ? O
   O13        1.0     0.729473     0.786250     0.937277    Uiso  ? O
   O14        1.0     0.063664     0.093594     0.079868    Uiso  ? O
   O14        1.0     0.063664     0.093594     0.222725    Uiso  ? O
   O14        1.0     0.063664     0.093594     0.365582    Uiso  ? O
   O14        1.0     0.063664     0.093594     0.508439    Uiso  ? O
   O14        1.0     0.063664     0.093594     0.651296    Uiso  ? O
   O14        1.0     0.063664     0.093594     0.794154    Uiso  ? O
   O14        1.0     0.063664     0.093594     0.937011    Uiso  ? O
   O14        1.0     0.063664     0.343594     0.079868    Uiso  ? O
   O14        1.0     0.063664     0.343594     0.222725    Uiso  ? O
   O14        1.0     0.063664     0.343594     0.365582    Uiso  ? O
   O14        1.0     0.063664     0.343594     0.508439    Uiso  ? O
   O14        1.0     0.063664     0.343594     0.651296    Uiso  ? O
   O14        1.0     0.063664     0.343594     0.794154    Uiso  ? O
   O14        1.0     0.063664     0.343594     0.937011    Uiso  ? O
   O14        1.0     0.063664     0.593594     0.079868    Uiso  ? O
   O14        1.0     0.063664     0.593594     0.222725    Uiso  ? O
   O14        1.0     0.063664     0.593594     0.365582    Uiso  ? O
   O14        1.0     0.063664     0.593594     0.508439    Uiso  ? O
   O14        1.0     0.063664     0.593594     0.651296    Uiso  ? O
   O14        1.0     0.063664     0.593594     0.794154    Uiso  ? O
   O14        1.0     0.063664     0.593594     0.937011    Uiso  ? O
   O14        1.0     0.063664     0.843594     0.079868    Uiso  ? O
   O14        1.0     0.063664     0.843594     0.222725    Uiso  ? O
   O14        1.0     0.063664     0.843594     0.365582    Uiso  ? O
   O14        1.0     0.063664     0.843594     0.508439    Uiso  ? O
   O14        1.0     0.063664     0.843594     0.651296    Uiso  ? O
   O14        1.0     0.063664     0.843594     0.794154    Uiso  ? O
   O14        1.0     0.063664     0.843594     0.937011    Uiso  ? O
   O14        1.0     0.396997     0.093594     0.079868    Uiso  ? O
   O14        1.0     0.396997     0.093594     0.222725    Uiso  ? O
   O14        1.0     0.396997     0.093594     0.365582    Uiso  ? O
   O14        1.0     0.396997     0.093594     0.508439    Uiso  ? O
   O14        1.0     0.396997     0.093594     0.651296    Uiso  ? O
   O14        1.0     0.396997     0.093594     0.794154    Uiso  ? O
   O14        1.0     0.396997     0.093594     0.937011    Uiso  ? O
   O14        1.0     0.396997     0.343594     0.079868    Uiso  ? O
   O14        1.0     0.396997     0.343594     0.222725    Uiso  ? O
   O14        1.0     0.396997     0.343594     0.365582    Uiso  ? O
   O14        1.0     0.396997     0.343594     0.508439    Uiso  ? O
   O14        1.0     0.396997     0.343594     0.651296    Uiso  ? O
   O14        1.0     0.396997     0.343594     0.794154    Uiso  ? O
   O14        1.0     0.396997     0.343594     0.937011    Uiso  ? O
   O14        1.0     0.396997     0.593594     0.079868    Uiso  ? O
   O14        1.0     0.396997     0.593594     0.222725    Uiso  ? O
   O14        1.0     0.396997     0.593594     0.365582    Uiso  ? O
   O14        1.0     0.396997     0.593594     0.508439    Uiso  ? O
   O14        1.0     0.396997     0.593594     0.651296    Uiso  ? O
   O14        1.0     0.396997     0.593594     0.794154    Uiso  ? O
   O14        1.0     0.396997     0.593594     0.937011    Uiso  ? O
   O14        1.0     0.396997     0.843594     0.079868    Uiso  ? O
   O14        1.0     0.396997     0.843594     0.222725    Uiso  ? O
   O14        1.0     0.396997     0.843594     0.365582    Uiso  ? O
   O14        1.0     0.396997     0.843594     0.508439    Uiso  ? O
   O14        1.0     0.396997     0.843594     0.651296    Uiso  ? O
   O14        1.0     0.396997     0.843594     0.794154    Uiso  ? O
   O14        1.0     0.396997     0.843594     0.937011    Uiso  ? O
   O14        1.0     0.730331     0.093594     0.079868    Uiso  ? O
   O14        1.0     0.730331     0.093594     0.222725    Uiso  ? O
   O14        1.0     0.730331     0.093594     0.365582    Uiso  ? O
   O14        1.0     0.730331     0.093594     0.508439    Uiso  ? O
   O14        1.0     0.730331     0.093594     0.651296    Uiso  ? O
   O14        1.0     0.730331     0.093594     0.794154    Uiso  ? O
   O14        1.0     0.730331     0.093594     0.937011    Uiso  ? O
   O14        1.0     0.730331     0.343594     0.079868    Uiso  ? O
   O14        1.0     0.730331     0.343594     0.222725    Uiso  ? O
   O14        1.0     0.730331     0.343594     0.365582    Uiso  ? O
   O14        1.0     0.730331     0.343594     0.508439    Uiso  ? O
   O14        1.0     0.730331     0.343594     0.651296    Uiso  ? O
   O14        1.0     0.730331     0.343594     0.794154    Uiso  ? O
   O14        1.0     0.730331     0.343594     0.937011    Uiso  ? O
   O14        1.0     0.730331     0.593594     0.079868    Uiso  ? O
   O14        1.0     0.730331     0.593594     0.222725    Uiso  ? O
   O14        1.0     0.730331     0.593594     0.365582    Uiso  ? O
   O14        1.0     0.730331     0.593594     0.508439    Uiso  ? O
   O14        1.0     0.730331     0.593594     0.651296    Uiso  ? O
   O14        1.0     0.730331     0.593594     0.794154    Uiso  ? O
   O14        1.0     0.730331     0.593594     0.937011    Uiso  ? O
   O14        1.0     0.730331     0.843594     0.079868    Uiso  ? O
   O14        1.0     0.730331     0.843594     0.222725    Uiso  ? O
   O14        1.0     0.730331     0.843594     0.365582    Uiso  ? O
   O14        1.0     0.730331     0.843594     0.508439    Uiso  ? O
   O14        1.0     0.730331     0.843594     0.651296    Uiso  ? O
   O14        1.0     0.730331     0.843594     0.794154    Uiso  ? O
   O14        1.0     0.730331     0.843594     0.937011    Uiso  ? O
   O15        1.0     0.266704     0.216415     0.061577    Uiso  ? O
   O15        1.0     0.266704     0.216415     0.204435    Uiso  ? O
   O15        1.0     0.266704     0.216415     0.347292    Uiso  ? O
   O15        1.0     0.266704     0.216415     0.490149    Uiso  ? O
   O15        1.0     0.266704     0.216415     0.633006    Uiso  ? O
   O15        1.0     0.266704     0.216415     0.775863    Uiso  ? O
   O15        1.0     0.266704     0.216415     0.918720    Uiso  ? O
   O15        1.0     0.266704     0.466415     0.061577    Uiso  ? O
   O15        1.0     0.266704     0.466415     0.204435    Uiso  ? O
   O15        1.0     0.266704     0.466415     0.347292    Uiso  ? O
   O15        1.0     0.266704     0.466415     0.490149    Uiso  ? O
   O15        1.0     0.266704     0.466415     0.633006    Uiso  ? O
   O15        1.0     0.266704     0.466415     0.775863    Uiso  ? O
   O15        1.0     0.266704     0.466415     0.918720    Uiso  ? O
   O15        1.0     0.266704     0.716415     0.061577    Uiso  ? O
   O15        1.0     0.266704     0.716415     0.204435    Uiso  ? O
   O15        1.0     0.266704     0.716415     0.347292    Uiso  ? O
   O15        1.0     0.266704     0.716415     0.490149    Uiso  ? O
   O15        1.0     0.266704     0.716415     0.633006    Uiso  ? O
   O15        1.0     0.266704     0.716415     0.775863    Uiso  ? O
   O15        1.0     0.266704     0.716415     0.918720    Uiso  ? O
   O15        1.0     0.266704     0.966415     0.061577    Uiso  ? O
   O15        1.0     0.266704     0.966415     0.204435    Uiso  ? O
   O15        1.0     0.266704     0.966415     0.347292    Uiso  ? O
   O15        1.0     0.266704     0.966415     0.490149    Uiso  ? O
   O15        1.0     0.266704     0.966415     0.633006    Uiso  ? O
   O15        1.0     0.266704     0.966415     0.775863    Uiso  ? O
   O15        1.0     0.266704     0.966415     0.918720    Uiso  ? O
   O15        1.0     0.600038     0.216415     0.061577    Uiso  ? O
   O15        1.0     0.600038     0.216415     0.204435    Uiso  ? O
   O15        1.0     0.600038     0.216415     0.347292    Uiso  ? O
   O15        1.0     0.600038     0.216415     0.490149    Uiso  ? O
   O15        1.0     0.600038     0.216415     0.633006    Uiso  ? O
   O15        1.0     0.600038     0.216415     0.775863    Uiso  ? O
   O15        1.0     0.600038     0.216415     0.918720    Uiso  ? O
   O15        1.0     0.600038     0.466415     0.061577    Uiso  ? O
   O15        1.0     0.600038     0.466415     0.204435    Uiso  ? O
   O15        1.0     0.600038     0.466415     0.347292    Uiso  ? O
   O15        1.0     0.600038     0.466415     0.490149    Uiso  ? O
   O15        1.0     0.600038     0.466415     0.633006    Uiso  ? O
   O15        1.0     0.600038     0.466415     0.775863    Uiso  ? O
   O15        1.0     0.600038     0.466415     0.918720    Uiso  ? O
   O15        1.0     0.600038     0.716415     0.061577    Uiso  ? O
   O15        1.0     0.600038     0.716415     0.204435    Uiso  ? O
   O15        1.0     0.600038     0.716415     0.347292    Uiso  ? O
   O15        1.0     0.600038     0.716415     0.490149    Uiso  ? O
   O15        1.0     0.600038     0.716415     0.633006    Uiso  ? O
   O15        1.0     0.600038     0.716415     0.775863    Uiso  ? O
   O15        1.0     0.600038     0.716415     0.918720    Uiso  ? O
   O15        1.0     0.600038     0.966415     0.061577    Uiso  ? O
   O15        1.0     0.600038     0.966415     0.204435    Uiso  ? O
   O15        1.0     0.600038     0.966415     0.347292    Uiso  ? O
   O15        1.0     0.600038     0.966415     0.490149    Uiso  ? O
   O15        1.0     0.600038     0.966415     0.633006    Uiso  ? O
   O15        1.0     0.600038     0.966415     0.775863    Uiso  ? O
   O15        1.0     0.600038     0.966415     0.918720    Uiso  ? O
   O15        1.0     0.933371     0.216415     0.061577    Uiso  ? O
   O15        1.0     0.933371     0.216415     0.204435    Uiso  ? O
   O15        1.0     0.933371     0.216415     0.347292    Uiso  ? O
   O15        1.0     0.933371     0.216415     0.490149    Uiso  ? O
   O15        1.0     0.933371     0.216415     0.633006    Uiso  ? O
   O15        1.0     0.933371     0.216415     0.775863    Uiso  ? O
   O15        1.0     0.933371     0.216415     0.918720    Uiso  ? O
   O15        1.0     0.933371     0.466415     0.061577    Uiso  ? O
   O15        1.0     0.933371     0.466415     0.204435    Uiso  ? O
   O15        1.0     0.933371     0.466415     0.347292    Uiso  ? O
   O15        1.0     0.933371     0.466415     0.490149    Uiso  ? O
   O15        1.0     0.933371     0.466415     0.633006    Uiso  ? O
   O15        1.0     0.933371     0.466415     0.775863    Uiso  ? O
   O15        1.0     0.933371     0.466415     0.918720    Uiso  ? O
   O15        1.0     0.933371     0.716415     0.061577    Uiso  ? O
   O15        1.0     0.933371     0.716415     0.204435    Uiso  ? O
   O15        1.0     0.933371     0.716415     0.347292    Uiso  ? O
   O15        1.0     0.933371     0.716415     0.490149    Uiso  ? O
   O15        1.0     0.933371     0.716415     0.633006    Uiso  ? O
   O15        1.0     0.933371     0.716415     0.775863    Uiso  ? O
   O15        1.0     0.933371     0.716415     0.918720    Uiso  ? O
   O15        1.0     0.933371     0.966415     0.061577    Uiso  ? O
   O15        1.0     0.933371     0.966415     0.204435    Uiso  ? O
   O15        1.0     0.933371     0.966415     0.347292    Uiso  ? O
   O15        1.0     0.933371     0.966415     0.490149    Uiso  ? O
   O15        1.0     0.933371     0.966415     0.633006    Uiso  ? O
   O15        1.0     0.933371     0.966415     0.775863    Uiso  ? O
   O15        1.0     0.933371     0.966415     0.918720    Uiso  ? O
   O16        1.0     0.268827     0.159152     0.060069    Uiso  ? O
   O16        1.0     0.268827     0.159152     0.202926    Uiso  ? O
   O16        1.0     0.268827     0.159152     0.345783    Uiso  ? O
   O16        1.0     0.268827     0.159152     0.488640    Uiso  ? O
   O16        1.0     0.268827     0.159152     0.631497    Uiso  ? O
   O16        1.0     0.268827     0.159152     0.774355    Uiso  ? O
   O16        1.0     0.268827     0.159152     0.917212    Uiso  ? O
   O16        1.0     0.268827     0.409152     0.060069    Uiso  ? O
   O16        1.0     0.268827     0.409152     0.202926    Uiso  ? O
   O16        1.0     0.268827     0.409152     0.345783    Uiso  ? O
   O16        1.0     0.268827     0.409152     0.488640    Uiso  ? O
   O16        1.0     0.268827     0.409152     0.631497    Uiso  ? O
   O16        1.0     0.268827     0.409152     0.774355    Uiso  ? O
   O16        1.0     0.268827     0.409152     0.917212    Uiso  ? O
   O16        1.0     0.268827     0.659152     0.060069    Uiso  ? O
   O16        1.0     0.268827     0.659152     0.202926    Uiso  ? O
   O16        1.0     0.268827     0.659152     0.345783    Uiso  ? O
   O16        1.0     0.268827     0.659152     0.488640    Uiso  ? O
   O16        1.0     0.268827     0.659152     0.631497    Uiso  ? O
   O16        1.0     0.268827     0.659152     0.774355    Uiso  ? O
   O16        1.0     0.268827     0.659152     0.917212    Uiso  ? O
   O16        1.0     0.268827     0.909152     0.060069    Uiso  ? O
   O16        1.0     0.268827     0.909152     0.202926    Uiso  ? O
   O16        1.0     0.268827     0.909152     0.345783    Uiso  ? O
   O16        1.0     0.268827     0.909152     0.488640    Uiso  ? O
   O16        1.0     0.268827     0.909152     0.631497    Uiso  ? O
   O16        1.0     0.268827     0.909152     0.774355    Uiso  ? O
   O16        1.0     0.268827     0.909152     0.917212    Uiso  ? O
   O16        1.0     0.602161     0.159152     0.060069    Uiso  ? O
   O16        1.0     0.602161     0.159152     0.202926    Uiso  ? O
   O16        1.0     0.602161     0.159152     0.345783    Uiso  ? O
   O16        1.0     0.602161     0.159152     0.488640    Uiso  ? O
   O16        1.0     0.602161     0.159152     0.631497    Uiso  ? O
   O16        1.0     0.602161     0.159152     0.774355    Uiso  ? O
   O16        1.0     0.602161     0.159152     0.917212    Uiso  ? O
   O16        1.0     0.602161     0.409152     0.060069    Uiso  ? O
   O16        1.0     0.602161     0.409152     0.202926    Uiso  ? O
   O16        1.0     0.602161     0.409152     0.345783    Uiso  ? O
   O16        1.0     0.602161     0.409152     0.488640    Uiso  ? O
   O16        1.0     0.602161     0.409152     0.631497    Uiso  ? O
   O16        1.0     0.602161     0.409152     0.774355    Uiso  ? O
   O16        1.0     0.602161     0.409152     0.917212    Uiso  ? O
   O16        1.0     0.602161     0.659152     0.060069    Uiso  ? O
   O16        1.0     0.602161     0.659152     0.202926    Uiso  ? O
   O16        1.0     0.602161     0.659152     0.345783    Uiso  ? O
   O16        1.0     0.602161     0.659152     0.488640    Uiso  ? O
   O16        1.0     0.602161     0.659152     0.631497    Uiso  ? O
   O16        1.0     0.602161     0.659152     0.774355    Uiso  ? O
   O16        1.0     0.602161     0.659152     0.917212    Uiso  ? O
   O16        1.0     0.602161     0.909152     0.060069    Uiso  ? O
   O16        1.0     0.602161     0.909152     0.202926    Uiso  ? O
   O16        1.0     0.602161     0.909152     0.345783    Uiso  ? O
   O16        1.0     0.602161     0.909152     0.488640    Uiso  ? O
   O16        1.0     0.602161     0.909152     0.631497    Uiso  ? O
   O16        1.0     0.602161     0.909152     0.774355    Uiso  ? O
   O16        1.0     0.602161     0.909152     0.917212    Uiso  ? O
   O16        1.0     0.935494     0.159152     0.060069    Uiso  ? O
   O16        1.0     0.935494     0.159152     0.202926    Uiso  ? O
   O16        1.0     0.935494     0.159152     0.345783    Uiso  ? O
   O16        1.0     0.935494     0.159152     0.488640    Uiso  ? O
   O16        1.0     0.935494     0.159152     0.631497    Uiso  ? O
   O16        1.0     0.935494     0.159152     0.774355    Uiso  ? O
   O16        1.0     0.935494     0.159152     0.917212    Uiso  ? O
   O16        1.0     0.935494     0.409152     0.060069    Uiso  ? O
   O16        1.0     0.935494     0.409152     0.202926    Uiso  ? O
   O16        1.0     0.935494     0.409152     0.345783    Uiso  ? O
   O16        1.0     0.935494     0.409152     0.488640    Uiso  ? O
   O16        1.0     0.935494     0.409152     0.631497    Uiso  ? O
   O16        1.0     0.935494     0.409152     0.774355    Uiso  ? O
   O16        1.0     0.935494     0.409152     0.917212    Uiso  ? O
   O16        1.0     0.935494     0.659152     0.060069    Uiso  ? O
   O16        1.0     0.935494     0.659152     0.202926    Uiso  ? O
   O16        1.0     0.935494     0.659152     0.345783    Uiso  ? O
   O16        1.0     0.935494     0.659152     0.488640    Uiso  ? O
   O16        1.0     0.935494     0.659152     0.631497    Uiso  ? O
   O16        1.0     0.935494     0.659152     0.774355    Uiso  ? O
   O16        1.0     0.935494     0.659152     0.917212    Uiso  ? O
   O16        1.0     0.935494     0.909152     0.060069    Uiso  ? O
   O16        1.0     0.935494     0.909152     0.202926    Uiso  ? O
   O16        1.0     0.935494     0.909152     0.345783    Uiso  ? O
   O16        1.0     0.935494     0.909152     0.488640    Uiso  ? O
   O16        1.0     0.935494     0.909152     0.631497    Uiso  ? O
   O16        1.0     0.935494     0.909152     0.774355    Uiso  ? O
   O16        1.0     0.935494     0.909152     0.917212    Uiso  ? O
   O17        1.0     0.106707     0.035348     0.052968    Uiso  ? O
   O17        1.0     0.106707     0.035348     0.195825    Uiso  ? O
   O17        1.0     0.106707     0.035348     0.338682    Uiso  ? O
   O17        1.0     0.106707     0.035348     0.481539    Uiso  ? O
   O17        1.0     0.106707     0.035348     0.624396    Uiso  ? O
   O17        1.0     0.106707     0.035348     0.767253    Uiso  ? O
   O17        1.0     0.106707     0.035348     0.910110    Uiso  ? O
   O17        1.0     0.106707     0.285348     0.052968    Uiso  ? O
   O17        1.0     0.106707     0.285348     0.195825    Uiso  ? O
   O17        1.0     0.106707     0.285348     0.338682    Uiso  ? O
   O17        1.0     0.106707     0.285348     0.481539    Uiso  ? O
   O17        1.0     0.106707     0.285348     0.624396    Uiso  ? O
   O17        1.0     0.106707     0.285348     0.767253    Uiso  ? O
   O17        1.0     0.106707     0.285348     0.910110    Uiso  ? O
   O17        1.0     0.106707     0.535348     0.052968    Uiso  ? O
   O17        1.0     0.106707     0.535348     0.195825    Uiso  ? O
   O17        1.0     0.106707     0.535348     0.338682    Uiso  ? O
   O17        1.0     0.106707     0.535348     0.481539    Uiso  ? O
   O17        1.0     0.106707     0.535348     0.624396    Uiso  ? O
   O17        1.0     0.106707     0.535348     0.767253    Uiso  ? O
   O17        1.0     0.106707     0.535348     0.910110    Uiso  ? O
   O17        1.0     0.106707     0.785348     0.052968    Uiso  ? O
   O17        1.0     0.106707     0.785348     0.195825    Uiso  ? O
   O17        1.0     0.106707     0.785348     0.338682    Uiso  ? O
   O17        1.0     0.106707     0.785348     0.481539    Uiso  ? O
   O17        1.0     0.106707     0.785348     0.624396    Uiso  ? O
   O17        1.0     0.106707     0.785348     0.767253    Uiso  ? O
   O17        1.0     0.106707     0.785348     0.910110    Uiso  ? O
   O17        1.0     0.440041     0.035348     0.052968    Uiso  ? O
   O17        1.0     0.440041     0.035348     0.195825    Uiso  ? O
   O17        1.0     0.440041     0.035348     0.338682    Uiso  ? O
   O17        1.0     0.440041     0.035348     0.481539    Uiso  ? O
   O17        1.0     0.440041     0.035348     0.624396    Uiso  ? O
   O17        1.0     0.440041     0.035348     0.767253    Uiso  ? O
   O17        1.0     0.440041     0.035348     0.910110    Uiso  ? O
   O17        1.0     0.440041     0.285348     0.052968    Uiso  ? O
   O17        1.0     0.440041     0.285348     0.195825    Uiso  ? O
   O17        1.0     0.440041     0.285348     0.338682    Uiso  ? O
   O17        1.0     0.440041     0.285348     0.481539    Uiso  ? O
   O17        1.0     0.440041     0.285348     0.624396    Uiso  ? O
   O17        1.0     0.440041     0.285348     0.767253    Uiso  ? O
   O17        1.0     0.440041     0.285348     0.910110    Uiso  ? O
   O17        1.0     0.440041     0.535348     0.052968    Uiso  ? O
   O17        1.0     0.440041     0.535348     0.195825    Uiso  ? O
   O17        1.0     0.440041     0.535348     0.338682    Uiso  ? O
   O17        1.0     0.440041     0.535348     0.481539    Uiso  ? O
   O17        1.0     0.440041     0.535348     0.624396    Uiso  ? O
   O17        1.0     0.440041     0.535348     0.767253    Uiso  ? O
   O17        1.0     0.440041     0.535348     0.910110    Uiso  ? O
   O17        1.0     0.440041     0.785348     0.052968    Uiso  ? O
   O17        1.0     0.440041     0.785348     0.195825    Uiso  ? O
   O17        1.0     0.440041     0.785348     0.338682    Uiso  ? O
   O17        1.0     0.440041     0.785348     0.481539    Uiso  ? O
   O17        1.0     0.440041     0.785348     0.624396    Uiso  ? O
   O17        1.0     0.440041     0.785348     0.767253    Uiso  ? O
   O17        1.0     0.440041     0.785348     0.910110    Uiso  ? O
   O17        1.0     0.773374     0.035348     0.052968    Uiso  ? O
   O17        1.0     0.773374     0.035348     0.195825    Uiso  ? O
   O17        1.0     0.773374     0.035348     0.338682    Uiso  ? O
   O17        1.0     0.773374     0.035348     0.481539    Uiso  ? O
   O17        1.0     0.773374     0.035348     0.624396    Uiso  ? O
   O17        1.0     0.773374     0.035348     0.767253    Uiso  ? O
   O17        1.0     0.773374     0.035348     0.910110    Uiso  ? O
   O17        1.0     0.773374     0.285348     0.052968    Uiso  ? O
   O17        1.0     0.773374     0.285348     0.195825    Uiso  ? O
   O17        1.0     0.773374     0.285348     0.338682    Uiso  ? O
   O17        1.0     0.773374     0.285348     0.481539    Uiso  ? O
   O17        1.0     0.773374     0.285348     0.624396    Uiso  ? O
   O17        1.0     0.773374     0.285348     0.767253    Uiso  ? O
   O17        1.0     0.773374     0.285348     0.910110    Uiso  ? O
   O17        1.0     0.773374     0.535348     0.052968    Uiso  ? O
   O17        1.0     0.773374     0.535348     0.195825    Uiso  ? O
   O17        1.0     0.773374     0.535348     0.338682    Uiso  ? O
   O17        1.0     0.773374     0.535348     0.481539    Uiso  ? O
   O17        1.0     0.773374     0.535348     0.624396    Uiso  ? O
   O17        1.0     0.773374     0.535348     0.767253    Uiso  ? O
   O17        1.0     0.773374     0.535348     0.910110    Uiso  ? O
   O17        1.0     0.773374     0.785348     0.052968    Uiso  ? O
   O17        1.0     0.773374     0.785348     0.195825    Uiso  ? O
   O17        1.0     0.773374     0.785348     0.338682    Uiso  ? O
   O17        1.0     0.773374     0.785348     0.481539    Uiso  ? O
   O17        1.0     0.773374     0.785348     0.624396    Uiso  ? O
   O17        1.0     0.773374     0.785348     0.767253    Uiso  ? O
   O17        1.0     0.773374     0.785348     0.910110    Uiso  ? O
   O18        1.0     0.317872     0.189445     0.056770    Uiso  ? O
   O18        1.0     0.317872     0.189445     0.199627    Uiso  ? O
   O18        1.0     0.317872     0.189445     0.342484    Uiso  ? O
   O18        1.0     0.317872     0.189445     0.485341    Uiso  ? O
   O18        1.0     0.317872     0.189445     0.628198    Uiso  ? O
   O18        1.0     0.317872     0.189445     0.771056    Uiso  ? O
   O18        1.0     0.317872     0.189445     0.913913    Uiso  ? O
   O18        1.0     0.317872     0.439445     0.056770    Uiso  ? O
   O18        1.0     0.317872     0.439445     0.199627    Uiso  ? O
   O18        1.0     0.317872     0.439445     0.342484    Uiso  ? O
   O18        1.0     0.317872     0.439445     0.485341    Uiso  ? O
   O18        1.0     0.317872     0.439445     0.628198    Uiso  ? O
   O18        1.0     0.317872     0.439445     0.771056    Uiso  ? O
   O18        1.0     0.317872     0.439445     0.913913    Uiso  ? O
   O18        1.0     0.317872     0.689445     0.056770    Uiso  ? O
   O18        1.0     0.317872     0.689445     0.199627    Uiso  ? O
   O18        1.0     0.317872     0.689445     0.342484    Uiso  ? O
   O18        1.0     0.317872     0.689445     0.485341    Uiso  ? O
   O18        1.0     0.317872     0.689445     0.628198    Uiso  ? O
   O18        1.0     0.317872     0.689445     0.771056    Uiso  ? O
   O18        1.0     0.317872     0.689445     0.913913    Uiso  ? O
   O18        1.0     0.317872     0.939445     0.056770    Uiso  ? O
   O18        1.0     0.317872     0.939445     0.199627    Uiso  ? O
   O18        1.0     0.317872     0.939445     0.342484    Uiso  ? O
   O18        1.0     0.317872     0.939445     0.485341    Uiso  ? O
   O18        1.0     0.317872     0.939445     0.628198    Uiso  ? O
   O18        1.0     0.317872     0.939445     0.771056    Uiso  ? O
   O18        1.0     0.317872     0.939445     0.913913    Uiso  ? O
   O18        1.0     0.651205     0.189445     0.056770    Uiso  ? O
   O18        1.0     0.651205     0.189445     0.199627    Uiso  ? O
   O18        1.0     0.651205     0.189445     0.342484    Uiso  ? O
   O18        1.0     0.651205     0.189445     0.485341    Uiso  ? O
   O18        1.0     0.651205     0.189445     0.628198    Uiso  ? O
   O18        1.0     0.651205     0.189445     0.771056    Uiso  ? O
   O18        1.0     0.651205     0.189445     0.913913    Uiso  ? O
   O18        1.0     0.651205     0.439445     0.056770    Uiso  ? O
   O18        1.0     0.651205     0.439445     0.199627    Uiso  ? O
   O18        1.0     0.651205     0.439445     0.342484    Uiso  ? O
   O18        1.0     0.651205     0.439445     0.485341    Uiso  ? O
   O18        1.0     0.651205     0.439445     0.628198    Uiso  ? O
   O18        1.0     0.651205     0.439445     0.771056    Uiso  ? O
   O18        1.0     0.651205     0.439445     0.913913    Uiso  ? O
   O18        1.0     0.651205     0.689445     0.056770    Uiso  ? O
   O18        1.0     0.651205     0.689445     0.199627    Uiso  ? O
   O18        1.0     0.651205     0.689445     0.342484    Uiso  ? O
   O18        1.0     0.651205     0.689445     0.485341    Uiso  ? O
   O18        1.0     0.651205     0.689445     0.628198    Uiso  ? O
   O18        1.0     0.651205     0.689445     0.771056    Uiso  ? O
   O18        1.0     0.651205     0.689445     0.913913    Uiso  ? O
   O18        1.0     0.651205     0.939445     0.056770    Uiso  ? O
   O18        1.0     0.651205     0.939445     0.199627    Uiso  ? O
   O18        1.0     0.651205     0.939445     0.342484    Uiso  ? O
   O18        1.0     0.651205     0.939445     0.485341    Uiso  ? O
   O18        1.0     0.651205     0.939445     0.628198    Uiso  ? O
   O18        1.0     0.651205     0.939445     0.771056    Uiso  ? O
   O18        1.0     0.651205     0.939445     0.913913    Uiso  ? O
   O18        1.0     0.984539     0.189445     0.056770    Uiso  ? O
   O18        1.0     0.984539     0.189445     0.199627    Uiso  ? O
   O18        1.0     0.984539     0.189445     0.342484    Uiso  ? O
   O18        1.0     0.984539     0.189445     0.485341    Uiso  ? O
   O18        1.0     0.984539     0.189445     0.628198    Uiso  ? O
   O18        1.0     0.984539     0.189445     0.771056    Uiso  ? O
   O18        1.0     0.984539     0.189445     0.913913    Uiso  ? O
   O18        1.0     0.984539     0.439445     0.056770    Uiso  ? O
   O18        1.0     0.984539     0.439445     0.199627    Uiso  ? O
   O18        1.0     0.984539     0.439445     0.342484    Uiso  ? O
   O18        1.0     0.984539     0.439445     0.485341    Uiso  ? O
   O18        1.0     0.984539     0.439445     0.628198    Uiso  ? O
   O18        1.0     0.984539     0.439445     0.771056    Uiso  ? O
   O18        1.0     0.984539     0.439445     0.913913    Uiso  ? O
   O18        1.0     0.984539     0.689445     0.056770    Uiso  ? O
   O18        1.0     0.984539     0.689445     0.199627    Uiso  ? O
   O18        1.0     0.984539     0.689445     0.342484    Uiso  ? O
   O18        1.0     0.984539     0.689445     0.485341    Uiso  ? O
   O18        1.0     0.984539     0.689445     0.628198    Uiso  ? O
   O18        1.0     0.984539     0.689445     0.771056    Uiso  ? O
   O18        1.0     0.984539     0.689445     0.913913    Uiso  ? O
   O18        1.0     0.984539     0.939445     0.056770    Uiso  ? O
   O18        1.0     0.984539     0.939445     0.199627    Uiso  ? O
   O18        1.0     0.984539     0.939445     0.342484    Uiso  ? O
   O18        1.0     0.984539     0.939445     0.485341    Uiso  ? O
   O18        1.0     0.984539     0.939445     0.628198    Uiso  ? O
   O18        1.0     0.984539     0.939445     0.771056    Uiso  ? O
   O18        1.0     0.984539     0.939445     0.913913    Uiso  ? O
   O19        1.0     0.107609     0.092375     0.052413    Uiso  ? O
   O19        1.0     0.107609     0.092375     0.195270    Uiso  ? O
   O19        1.0     0.107609     0.092375     0.338127    Uiso  ? O
   O19        1.0     0.107609     0.092375     0.480984    Uiso  ? O
   O19        1.0     0.107609     0.092375     0.623841    Uiso  ? O
   O19        1.0     0.107609     0.092375     0.766698    Uiso  ? O
   O19        1.0     0.107609     0.092375     0.909555    Uiso  ? O
   O19        1.0     0.107609     0.342375     0.052413    Uiso  ? O
   O19        1.0     0.107609     0.342375     0.195270    Uiso  ? O
   O19        1.0     0.107609     0.342375     0.338127    Uiso  ? O
   O19        1.0     0.107609     0.342375     0.480984    Uiso  ? O
   O19        1.0     0.107609     0.342375     0.623841    Uiso  ? O
   O19        1.0     0.107609     0.342375     0.766698    Uiso  ? O
   O19        1.0     0.107609     0.342375     0.909555    Uiso  ? O
   O19        1.0     0.107609     0.592375     0.052413    Uiso  ? O
   O19        1.0     0.107609     0.592375     0.195270    Uiso  ? O
   O19        1.0     0.107609     0.592375     0.338127    Uiso  ? O
   O19        1.0     0.107609     0.592375     0.480984    Uiso  ? O
   O19        1.0     0.107609     0.592375     0.623841    Uiso  ? O
   O19        1.0     0.107609     0.592375     0.766698    Uiso  ? O
   O19        1.0     0.107609     0.592375     0.909555    Uiso  ? O
   O19        1.0     0.107609     0.842375     0.052413    Uiso  ? O
   O19        1.0     0.107609     0.842375     0.195270    Uiso  ? O
   O19        1.0     0.107609     0.842375     0.338127    Uiso  ? O
   O19        1.0     0.107609     0.842375     0.480984    Uiso  ? O
   O19        1.0     0.107609     0.842375     0.623841    Uiso  ? O
   O19        1.0     0.107609     0.842375     0.766698    Uiso  ? O
   O19        1.0     0.107609     0.842375     0.909555    Uiso  ? O
   O19        1.0     0.440942     0.092375     0.052413    Uiso  ? O
   O19        1.0     0.440942     0.092375     0.195270    Uiso  ? O
   O19        1.0     0.440942     0.092375     0.338127    Uiso  ? O
   O19        1.0     0.440942     0.092375     0.480984    Uiso  ? O
   O19        1.0     0.440942     0.092375     0.623841    Uiso  ? O
   O19        1.0     0.440942     0.092375     0.766698    Uiso  ? O
   O19        1.0     0.440942     0.092375     0.909555    Uiso  ? O
   O19        1.0     0.440942     0.342375     0.052413    Uiso  ? O
   O19        1.0     0.440942     0.342375     0.195270    Uiso  ? O
   O19        1.0     0.440942     0.342375     0.338127    Uiso  ? O
   O19        1.0     0.440942     0.342375     0.480984    Uiso  ? O
   O19        1.0     0.440942     0.342375     0.623841    Uiso  ? O
   O19        1.0     0.440942     0.342375     0.766698    Uiso  ? O
   O19        1.0     0.440942     0.342375     0.909555    Uiso  ? O
   O19        1.0     0.440942     0.592375     0.052413    Uiso  ? O
   O19        1.0     0.440942     0.592375     0.195270    Uiso  ? O
   O19        1.0     0.440942     0.592375     0.338127    Uiso  ? O
   O19        1.0     0.440942     0.592375     0.480984    Uiso  ? O
   O19        1.0     0.440942     0.592375     0.623841    Uiso  ? O
   O19        1.0     0.440942     0.592375     0.766698    Uiso  ? O
   O19        1.0     0.440942     0.592375     0.909555    Uiso  ? O
   O19        1.0     0.440942     0.842375     0.052413    Uiso  ? O
   O19        1.0     0.440942     0.842375     0.195270    Uiso  ? O
   O19        1.0     0.440942     0.842375     0.338127    Uiso  ? O
   O19        1.0     0.440942     0.842375     0.480984    Uiso  ? O
   O19        1.0     0.440942     0.842375     0.623841    Uiso  ? O
   O19        1.0     0.440942     0.842375     0.766698    Uiso  ? O
   O19        1.0     0.440942     0.842375     0.909555    Uiso  ? O
   O19        1.0     0.774275     0.092375     0.052413    Uiso  ? O
   O19        1.0     0.774275     0.092375     0.195270    Uiso  ? O
   O19        1.0     0.774275     0.092375     0.338127    Uiso  ? O
   O19        1.0     0.774275     0.092375     0.480984    Uiso  ? O
   O19        1.0     0.774275     0.092375     0.623841    Uiso  ? O
   O19        1.0     0.774275     0.092375     0.766698    Uiso  ? O
   O19        1.0     0.774275     0.092375     0.909555    Uiso  ? O
   O19        1.0     0.774275     0.342375     0.052413    Uiso  ? O
   O19        1.0     0.774275     0.342375     0.195270    Uiso  ? O
   O19        1.0     0.774275     0.342375     0.338127    Uiso  ? O
   O19        1.0     0.774275     0.342375     0.480984    Uiso  ? O
   O19        1.0     0.774275     0.342375     0.623841    Uiso  ? O
   O19        1.0     0.774275     0.342375     0.766698    Uiso  ? O
   O19        1.0     0.774275     0.342375     0.909555    Uiso  ? O
   O19        1.0     0.774275     0.592375     0.052413    Uiso  ? O
   O19        1.0     0.774275     0.592375     0.195270    Uiso  ? O
   O19        1.0     0.774275     0.592375     0.338127    Uiso  ? O
   O19        1.0     0.774275     0.592375     0.480984    Uiso  ? O
   O19        1.0     0.774275     0.592375     0.623841    Uiso  ? O
   O19        1.0     0.774275     0.592375     0.766698    Uiso  ? O
   O19        1.0     0.774275     0.592375     0.909555    Uiso  ? O
   O19        1.0     0.774275     0.842375     0.052413    Uiso  ? O
   O19        1.0     0.774275     0.842375     0.195270    Uiso  ? O
   O19        1.0     0.774275     0.842375     0.338127    Uiso  ? O
   O19        1.0     0.774275     0.842375     0.480984    Uiso  ? O
   O19        1.0     0.774275     0.842375     0.623841    Uiso  ? O
   O19        1.0     0.774275     0.842375     0.766698    Uiso  ? O
   O19        1.0     0.774275     0.842375     0.909555    Uiso  ? O
   O20        1.0     0.021903     0.060892     0.034392    Uiso  ? O
   O20        1.0     0.021903     0.060892     0.177249    Uiso  ? O
   O20        1.0     0.021903     0.060892     0.320107    Uiso  ? O
   O20        1.0     0.021903     0.060892     0.462964    Uiso  ? O
   O20        1.0     0.021903     0.060892     0.605821    Uiso  ? O
   O20        1.0     0.021903     0.060892     0.748678    Uiso  ? O
   O20        1.0     0.021903     0.060892     0.891535    Uiso  ? O
   O20        1.0     0.021903     0.310892     0.034392    Uiso  ? O
   O20        1.0     0.021903     0.310892     0.177249    Uiso  ? O
   O20        1.0     0.021903     0.310892     0.320107    Uiso  ? O
   O20        1.0     0.021903     0.310892     0.462964    Uiso  ? O
   O20        1.0     0.021903     0.310892     0.605821    Uiso  ? O
   O20        1.0     0.021903     0.310892     0.748678    Uiso  ? O
   O20        1.0     0.021903     0.310892     0.891535    Uiso  ? O
   O20        1.0     0.021903     0.560892     0.034392    Uiso  ? O
   O20        1.0     0.021903     0.560892     0.177249    Uiso  ? O
   O20        1.0     0.021903     0.560892     0.320107    Uiso  ? O
   O20        1.0     0.021903     0.560892     0.462964    Uiso  ? O
   O20        1.0     0.021903     0.560892     0.605821    Uiso  ? O
   O20        1.0     0.021903     0.560892     0.748678    Uiso  ? O
   O20        1.0     0.021903     0.560892     0.891535    Uiso  ? O
   O20        1.0     0.021903     0.810892     0.034392    Uiso  ? O
   O20        1.0     0.021903     0.810892     0.177249    Uiso  ? O
   O20        1.0     0.021903     0.810892     0.320107    Uiso  ? O
   O20        1.0     0.021903     0.810892     0.462964    Uiso  ? O
   O20        1.0     0.021903     0.810892     0.605821    Uiso  ? O
   O20        1.0     0.021903     0.810892     0.748678    Uiso  ? O
   O20        1.0     0.021903     0.810892     0.891535    Uiso  ? O
   O20        1.0     0.355237     0.060892     0.034392    Uiso  ? O
   O20        1.0     0.355237     0.060892     0.177249    Uiso  ? O
   O20        1.0     0.355237     0.060892     0.320107    Uiso  ? O
   O20        1.0     0.355237     0.060892     0.462964    Uiso  ? O
   O20        1.0     0.355237     0.060892     0.605821    Uiso  ? O
   O20        1.0     0.355237     0.060892     0.748678    Uiso  ? O
   O20        1.0     0.355237     0.060892     0.891535    Uiso  ? O
   O20        1.0     0.355237     0.310892     0.034392    Uiso  ? O
   O20        1.0     0.355237     0.310892     0.177249    Uiso  ? O
   O20        1.0     0.355237     0.310892     0.320107    Uiso  ? O
   O20        1.0     0.355237     0.310892     0.462964    Uiso  ? O
   O20        1.0     0.355237     0.310892     0.605821    Uiso  ? O
   O20        1.0     0.355237     0.310892     0.748678    Uiso  ? O
   O20        1.0     0.355237     0.310892     0.891535    Uiso  ? O
   O20        1.0     0.355237     0.560892     0.034392    Uiso  ? O
   O20        1.0     0.355237     0.560892     0.177249    Uiso  ? O
   O20        1.0     0.355237     0.560892     0.320107    Uiso  ? O
   O20        1.0     0.355237     0.560892     0.462964    Uiso  ? O
   O20        1.0     0.355237     0.560892     0.605821    Uiso  ? O
   O20        1.0     0.355237     0.560892     0.748678    Uiso  ? O
   O20        1.0     0.355237     0.560892     0.891535    Uiso  ? O
   O20        1.0     0.355237     0.810892     0.034392    Uiso  ? O
   O20        1.0     0.355237     0.810892     0.177249    Uiso  ? O
   O20        1.0     0.355237     0.810892     0.320107    Uiso  ? O
   O20        1.0     0.355237     0.810892     0.462964    Uiso  ? O
   O20        1.0     0.355237     0.810892     0.605821    Uiso  ? O
   O20        1.0     0.355237     0.810892     0.748678    Uiso  ? O
   O20        1.0     0.355237     0.810892     0.891535    Uiso  ? O
   O20        1.0     0.688570     0.060892     0.034392    Uiso  ? O
   O20        1.0     0.688570     0.060892     0.177249    Uiso  ? O
   O20        1.0     0.688570     0.060892     0.320107    Uiso  ? O
   O20        1.0     0.688570     0.060892     0.462964    Uiso  ? O
   O20        1.0     0.688570     0.060892     0.605821    Uiso  ? O
   O20        1.0     0.688570     0.060892     0.748678    Uiso  ? O
   O20        1.0     0.688570     0.060892     0.891535    Uiso  ? O
   O20        1.0     0.688570     0.310892     0.034392    Uiso  ? O
   O20        1.0     0.688570     0.310892     0.177249    Uiso  ? O
   O20        1.0     0.688570     0.310892     0.320107    Uiso  ? O
   O20        1.0     0.688570     0.310892     0.462964    Uiso  ? O
   O20        1.0     0.688570     0.310892     0.605821    Uiso  ? O
   O20        1.0     0.688570     0.310892     0.748678    Uiso  ? O
   O20        1.0     0.688570     0.310892     0.891535    Uiso  ? O
   O20        1.0     0.688570     0.560892     0.034392    Uiso  ? O
   O20        1.0     0.688570     0.560892     0.177249    Uiso  ? O
   O20        1.0     0.688570     0.560892     0.320107    Uiso  ? O
   O20        1.0     0.688570     0.560892     0.462964    Uiso  ? O
   O20        1.0     0.688570     0.560892     0.605821    Uiso  ? O
   O20        1.0     0.688570     0.560892     0.748678    Uiso  ? O
   O20        1.0     0.688570     0.560892     0.891535    Uiso  ? O
   O20        1.0     0.688570     0.810892     0.034392    Uiso  ? O
   O20        1.0     0.688570     0.810892     0.177249    Uiso  ? O
   O20        1.0     0.688570     0.810892     0.320107    Uiso  ? O
   O20        1.0     0.688570     0.810892     0.462964    Uiso  ? O
   O20        1.0     0.688570     0.810892     0.605821    Uiso  ? O
   O20        1.0     0.688570     0.810892     0.748678    Uiso  ? O
   O20        1.0     0.688570     0.810892     0.891535    Uiso  ? O
   O21        1.0     0.066696     0.064527     0.032873    Uiso  ? O
   O21        1.0     0.066696     0.064527     0.175730    Uiso  ? O
   O21        1.0     0.066696     0.064527     0.318588    Uiso  ? O
   O21        1.0     0.066696     0.064527     0.461445    Uiso  ? O
   O21        1.0     0.066696     0.064527     0.604302    Uiso  ? O
   O21        1.0     0.066696     0.064527     0.747159    Uiso  ? O
   O21        1.0     0.066696     0.064527     0.890016    Uiso  ? O
   O21        1.0     0.066696     0.314527     0.032873    Uiso  ? O
   O21        1.0     0.066696     0.314527     0.175730    Uiso  ? O
   O21        1.0     0.066696     0.314527     0.318588    Uiso  ? O
   O21        1.0     0.066696     0.314527     0.461445    Uiso  ? O
   O21        1.0     0.066696     0.314527     0.604302    Uiso  ? O
   O21        1.0     0.066696     0.314527     0.747159    Uiso  ? O
   O21        1.0     0.066696     0.314527     0.890016    Uiso  ? O
   O21        1.0     0.066696     0.564527     0.032873    Uiso  ? O
   O21        1.0     0.066696     0.564527     0.175730    Uiso  ? O
   O21        1.0     0.066696     0.564527     0.318588    Uiso  ? O
   O21        1.0     0.066696     0.564527     0.461445    Uiso  ? O
   O21        1.0     0.066696     0.564527     0.604302    Uiso  ? O
   O21        1.0     0.066696     0.564527     0.747159    Uiso  ? O
   O21        1.0     0.066696     0.564527     0.890016    Uiso  ? O
   O21        1.0     0.066696     0.814527     0.032873    Uiso  ? O
   O21        1.0     0.066696     0.814527     0.175730    Uiso  ? O
   O21        1.0     0.066696     0.814527     0.318588    Uiso  ? O
   O21        1.0     0.066696     0.814527     0.461445    Uiso  ? O
   O21        1.0     0.066696     0.814527     0.604302    Uiso  ? O
   O21        1.0     0.066696     0.814527     0.747159    Uiso  ? O
   O21        1.0     0.066696     0.814527     0.890016    Uiso  ? O
   O21        1.0     0.400029     0.064527     0.032873    Uiso  ? O
   O21        1.0     0.400029     0.064527     0.175730    Uiso  ? O
   O21        1.0     0.400029     0.064527     0.318588    Uiso  ? O
   O21        1.0     0.400029     0.064527     0.461445    Uiso  ? O
   O21        1.0     0.400029     0.064527     0.604302    Uiso  ? O
   O21        1.0     0.400029     0.064527     0.747159    Uiso  ? O
   O21        1.0     0.400029     0.064527     0.890016    Uiso  ? O
   O21        1.0     0.400029     0.314527     0.032873    Uiso  ? O
   O21        1.0     0.400029     0.314527     0.175730    Uiso  ? O
   O21        1.0     0.400029     0.314527     0.318588    Uiso  ? O
   O21        1.0     0.400029     0.314527     0.461445    Uiso  ? O
   O21        1.0     0.400029     0.314527     0.604302    Uiso  ? O
   O21        1.0     0.400029     0.314527     0.747159    Uiso  ? O
   O21        1.0     0.400029     0.314527     0.890016    Uiso  ? O
   O21        1.0     0.400029     0.564527     0.032873    Uiso  ? O
   O21        1.0     0.400029     0.564527     0.175730    Uiso  ? O
   O21        1.0     0.400029     0.564527     0.318588    Uiso  ? O
   O21        1.0     0.400029     0.564527     0.461445    Uiso  ? O
   O21        1.0     0.400029     0.564527     0.604302    Uiso  ? O
   O21        1.0     0.400029     0.564527     0.747159    Uiso  ? O
   O21        1.0     0.400029     0.564527     0.890016    Uiso  ? O
   O21        1.0     0.400029     0.814527     0.032873    Uiso  ? O
   O21        1.0     0.400029     0.814527     0.175730    Uiso  ? O
   O21        1.0     0.400029     0.814527     0.318588    Uiso  ? O
   O21        1.0     0.400029     0.814527     0.461445    Uiso  ? O
   O21        1.0     0.400029     0.814527     0.604302    Uiso  ? O
   O21        1.0     0.400029     0.814527     0.747159    Uiso  ? O
   O21        1.0     0.400029     0.814527     0.890016    Uiso  ? O
   O21        1.0     0.733362     0.064527     0.032873    Uiso  ? O
   O21        1.0     0.733362     0.064527     0.175730    Uiso  ? O
   O21        1.0     0.733362     0.064527     0.318588    Uiso  ? O
   O21        1.0     0.733362     0.064527     0.461445    Uiso  ? O
   O21        1.0     0.733362     0.064527     0.604302    Uiso  ? O
   O21        1.0     0.733362     0.064527     0.747159    Uiso  ? O
   O21        1.0     0.733362     0.064527     0.890016    Uiso  ? O
   O21        1.0     0.733362     0.314527     0.032873    Uiso  ? O
   O21        1.0     0.733362     0.314527     0.175730    Uiso  ? O
   O21        1.0     0.733362     0.314527     0.318588    Uiso  ? O
   O21        1.0     0.733362     0.314527     0.461445    Uiso  ? O
   O21        1.0     0.733362     0.314527     0.604302    Uiso  ? O
   O21        1.0     0.733362     0.314527     0.747159    Uiso  ? O
   O21        1.0     0.733362     0.314527     0.890016    Uiso  ? O
   O21        1.0     0.733362     0.564527     0.032873    Uiso  ? O
   O21        1.0     0.733362     0.564527     0.175730    Uiso  ? O
   O21        1.0     0.733362     0.564527     0.318588    Uiso  ? O
   O21        1.0     0.733362     0.564527     0.461445    Uiso  ? O
   O21        1.0     0.733362     0.564527     0.604302    Uiso  ? O
   O21        1.0     0.733362     0.564527     0.747159    Uiso  ? O
   O21        1.0     0.733362     0.564527     0.890016    Uiso  ? O
   O21        1.0     0.733362     0.814527     0.032873    Uiso  ? O
   O21        1.0     0.733362     0.814527     0.175730    Uiso  ? O
   O21        1.0     0.733362     0.814527     0.318588    Uiso  ? O
   O21        1.0     0.733362     0.814527     0.461445    Uiso  ? O
   O21        1.0     0.733362     0.814527     0.604302    Uiso  ? O
   O21        1.0     0.733362     0.814527     0.747159    Uiso  ? O
   O21        1.0     0.733362     0.814527     0.890016    Uiso  ? O
   O22        1.0     0.233327     0.186172     0.036542    Uiso  ? O
   O22        1.0     0.233327     0.186172     0.179399    Uiso  ? O
   O22        1.0     0.233327     0.186172     0.322256    Uiso  ? O
   O22        1.0     0.233327     0.186172     0.465113    Uiso  ? O
   O22        1.0     0.233327     0.186172     0.607971    Uiso  ? O
   O22        1.0     0.233327     0.186172     0.750828    Uiso  ? O
   O22        1.0     0.233327     0.186172     0.893685    Uiso  ? O
   O22        1.0     0.233327     0.436172     0.036542    Uiso  ? O
   O22        1.0     0.233327     0.436172     0.179399    Uiso  ? O
   O22        1.0     0.233327     0.436172     0.322256    Uiso  ? O
   O22        1.0     0.233327     0.436172     0.465113    Uiso  ? O
   O22        1.0     0.233327     0.436172     0.607971    Uiso  ? O
   O22        1.0     0.233327     0.436172     0.750828    Uiso  ? O
   O22        1.0     0.233327     0.436172     0.893685    Uiso  ? O
   O22        1.0     0.233327     0.686172     0.036542    Uiso  ? O
   O22        1.0     0.233327     0.686172     0.179399    Uiso  ? O
   O22        1.0     0.233327     0.686172     0.322256    Uiso  ? O
   O22        1.0     0.233327     0.686172     0.465113    Uiso  ? O
   O22        1.0     0.233327     0.686172     0.607971    Uiso  ? O
   O22        1.0     0.233327     0.686172     0.750828    Uiso  ? O
   O22        1.0     0.233327     0.686172     0.893685    Uiso  ? O
   O22        1.0     0.233327     0.936172     0.036542    Uiso  ? O
   O22        1.0     0.233327     0.936172     0.179399    Uiso  ? O
   O22        1.0     0.233327     0.936172     0.322256    Uiso  ? O
   O22        1.0     0.233327     0.936172     0.465113    Uiso  ? O
   O22        1.0     0.233327     0.936172     0.607971    Uiso  ? O
   O22        1.0     0.233327     0.936172     0.750828    Uiso  ? O
   O22        1.0     0.233327     0.936172     0.893685    Uiso  ? O
   O22        1.0     0.566661     0.186172     0.036542    Uiso  ? O
   O22        1.0     0.566661     0.186172     0.179399    Uiso  ? O
   O22        1.0     0.566661     0.186172     0.322256    Uiso  ? O
   O22        1.0     0.566661     0.186172     0.465113    Uiso  ? O
   O22        1.0     0.566661     0.186172     0.607971    Uiso  ? O
   O22        1.0     0.566661     0.186172     0.750828    Uiso  ? O
   O22        1.0     0.566661     0.186172     0.893685    Uiso  ? O
   O22        1.0     0.566661     0.436172     0.036542    Uiso  ? O
   O22        1.0     0.566661     0.436172     0.179399    Uiso  ? O
   O22        1.0     0.566661     0.436172     0.322256    Uiso  ? O
   O22        1.0     0.566661     0.436172     0.465113    Uiso  ? O
   O22        1.0     0.566661     0.436172     0.607971    Uiso  ? O
   O22        1.0     0.566661     0.436172     0.750828    Uiso  ? O
   O22        1.0     0.566661     0.436172     0.893685    Uiso  ? O
   O22        1.0     0.566661     0.686172     0.036542    Uiso  ? O
   O22        1.0     0.566661     0.686172     0.179399    Uiso  ? O
   O22        1.0     0.566661     0.686172     0.322256    Uiso  ? O
   O22        1.0     0.566661     0.686172     0.465113    Uiso  ? O
   O22        1.0     0.566661     0.686172     0.607971    Uiso  ? O
   O22        1.0     0.566661     0.686172     0.750828    Uiso  ? O
   O22        1.0     0.566661     0.686172     0.893685    Uiso  ? O
   O22        1.0     0.566661     0.936172     0.036542    Uiso  ? O
   O22        1.0     0.566661     0.936172     0.179399    Uiso  ? O
   O22        1.0     0.566661     0.936172     0.322256    Uiso  ? O
   O22        1.0     0.566661     0.936172     0.465113    Uiso  ? O
   O22        1.0     0.566661     0.936172     0.607971    Uiso  ? O
   O22        1.0     0.566661     0.936172     0.750828    Uiso  ? O
   O22        1.0     0.566661     0.936172     0.893685    Uiso  ? O
   O22        1.0     0.899994     0.186172     0.036542    Uiso  ? O
   O22        1.0     0.899994     0.186172     0.179399    Uiso  ? O
   O22        1.0     0.899994     0.186172     0.322256    Uiso  ? O
   O22        1.0     0.899994     0.186172     0.465113    Uiso  ? O
   O22        1.0     0.899994     0.186172     0.607971    Uiso  ? O
   O22        1.0     0.899994     0.186172     0.750828    Uiso  ? O
   O22        1.0     0.899994     0.186172     0.893685    Uiso  ? O
   O22        1.0     0.899994     0.436172     0.036542    Uiso  ? O
   O22        1.0     0.899994     0.436172     0.179399    Uiso  ? O
   O22        1.0     0.899994     0.436172     0.322256    Uiso  ? O
   O22        1.0     0.899994     0.436172     0.465113    Uiso  ? O
   O22        1.0     0.899994     0.436172     0.607971    Uiso  ? O
   O22        1.0     0.899994     0.436172     0.750828    Uiso  ? O
   O22        1.0     0.899994     0.436172     0.893685    Uiso  ? O
   O22        1.0     0.899994     0.686172     0.036542    Uiso  ? O
   O22        1.0     0.899994     0.686172     0.179399    Uiso  ? O
   O22        1.0     0.899994     0.686172     0.322256    Uiso  ? O
   O22        1.0     0.899994     0.686172     0.465113    Uiso  ? O
   O22        1.0     0.899994     0.686172     0.607971    Uiso  ? O
   O22        1.0     0.899994     0.686172     0.750828    Uiso  ? O
   O22        1.0     0.899994     0.686172     0.893685    Uiso  ? O
   O22        1.0     0.899994     0.936172     0.036542    Uiso  ? O
   O22        1.0     0.899994     0.936172     0.179399    Uiso  ? O
   O22        1.0     0.899994     0.936172     0.322256    Uiso  ? O
   O22        1.0     0.899994     0.936172     0.465113    Uiso  ? O
   O22        1.0     0.899994     0.936172     0.607971    Uiso  ? O
   O22        1.0     0.899994     0.936172     0.750828    Uiso  ? O
   O22        1.0     0.899994     0.936172     0.893685    Uiso  ? O
   O23        1.0     0.188720     0.189580     0.033390    Uiso  ? O
   O23        1.0     0.188720     0.189580     0.176247    Uiso  ? O
   O23        1.0     0.188720     0.189580     0.319104    Uiso  ? O
   O23        1.0     0.188720     0.189580     0.461962    Uiso  ? O
   O23        1.0     0.188720     0.189580     0.604819    Uiso  ? O
   O23        1.0     0.188720     0.189580     0.747676    Uiso  ? O
   O23        1.0     0.188720     0.189580     0.890533    Uiso  ? O
   O23        1.0     0.188720     0.439581     0.033390    Uiso  ? O
   O23        1.0     0.188720     0.439581     0.176247    Uiso  ? O
   O23        1.0     0.188720     0.439581     0.319104    Uiso  ? O
   O23        1.0     0.188720     0.439581     0.461962    Uiso  ? O
   O23        1.0     0.188720     0.439581     0.604819    Uiso  ? O
   O23        1.0     0.188720     0.439581     0.747676    Uiso  ? O
   O23        1.0     0.188720     0.439581     0.890533    Uiso  ? O
   O23        1.0     0.188720     0.689581     0.033390    Uiso  ? O
   O23        1.0     0.188720     0.689581     0.176247    Uiso  ? O
   O23        1.0     0.188720     0.689581     0.319104    Uiso  ? O
   O23        1.0     0.188720     0.689581     0.461962    Uiso  ? O
   O23        1.0     0.188720     0.689581     0.604819    Uiso  ? O
   O23        1.0     0.188720     0.689581     0.747676    Uiso  ? O
   O23        1.0     0.188720     0.689581     0.890533    Uiso  ? O
   O23        1.0     0.188720     0.939581     0.033390    Uiso  ? O
   O23        1.0     0.188720     0.939581     0.176247    Uiso  ? O
   O23        1.0     0.188720     0.939581     0.319104    Uiso  ? O
   O23        1.0     0.188720     0.939581     0.461962    Uiso  ? O
   O23        1.0     0.188720     0.939581     0.604819    Uiso  ? O
   O23        1.0     0.188720     0.939581     0.747676    Uiso  ? O
   O23        1.0     0.188720     0.939581     0.890533    Uiso  ? O
   O23        1.0     0.522054     0.189580     0.033390    Uiso  ? O
   O23        1.0     0.522054     0.189580     0.176247    Uiso  ? O
   O23        1.0     0.522054     0.189580     0.319104    Uiso  ? O
   O23        1.0     0.522054     0.189580     0.461962    Uiso  ? O
   O23        1.0     0.522054     0.189580     0.604819    Uiso  ? O
   O23        1.0     0.522054     0.189580     0.747676    Uiso  ? O
   O23        1.0     0.522054     0.189580     0.890533    Uiso  ? O
   O23        1.0     0.522054     0.439581     0.033390    Uiso  ? O
   O23        1.0     0.522054     0.439581     0.176247    Uiso  ? O
   O23        1.0     0.522054     0.439581     0.319104    Uiso  ? O
   O23        1.0     0.522054     0.439581     0.461962    Uiso  ? O
   O23        1.0     0.522054     0.439581     0.604819    Uiso  ? O
   O23        1.0     0.522054     0.439581     0.747676    Uiso  ? O
   O23        1.0     0.522054     0.439581     0.890533    Uiso  ? O
   O23        1.0     0.522054     0.689581     0.033390    Uiso  ? O
   O23        1.0     0.522054     0.689581     0.176247    Uiso  ? O
   O23        1.0     0.522054     0.689581     0.319104    Uiso  ? O
   O23        1.0     0.522054     0.689581     0.461962    Uiso  ? O
   O23        1.0     0.522054     0.689581     0.604819    Uiso  ? O
   O23        1.0     0.522054     0.689581     0.747676    Uiso  ? O
   O23        1.0     0.522054     0.689581     0.890533    Uiso  ? O
   O23        1.0     0.522054     0.939581     0.033390    Uiso  ? O
   O23        1.0     0.522054     0.939581     0.176247    Uiso  ? O
   O23        1.0     0.522054     0.939581     0.319104    Uiso  ? O
   O23        1.0     0.522054     0.939581     0.461962    Uiso  ? O
   O23        1.0     0.522054     0.939581     0.604819    Uiso  ? O
   O23        1.0     0.522054     0.939581     0.747676    Uiso  ? O
   O23        1.0     0.522054     0.939581     0.890533    Uiso  ? O
   O23        1.0     0.855387     0.189580     0.033390    Uiso  ? O
   O23        1.0     0.855387     0.189580     0.176247    Uiso  ? O
   O23        1.0     0.855387     0.189580     0.319104    Uiso  ? O
   O23        1.0     0.855387     0.189580     0.461962    Uiso  ? O
   O23        1.0     0.855387     0.189580     0.604819    Uiso  ? O
   O23        1.0     0.855387     0.189580     0.747676    Uiso  ? O
   O23        1.0     0.855387     0.189580     0.890533    Uiso  ? O
   O23        1.0     0.855387     0.439581     0.033390    Uiso  ? O
   O23        1.0     0.855387     0.439581     0.176247    Uiso  ? O
   O23        1.0     0.855387     0.439581     0.319104    Uiso  ? O
   O23        1.0     0.855387     0.439581     0.461962    Uiso  ? O
   O23        1.0     0.855387     0.439581     0.604819    Uiso  ? O
   O23        1.0     0.855387     0.439581     0.747676    Uiso  ? O
   O23        1.0     0.855387     0.439581     0.890533    Uiso  ? O
   O23        1.0     0.855387     0.689581     0.033390    Uiso  ? O
   O23        1.0     0.855387     0.689581     0.176247    Uiso  ? O
   O23        1.0     0.855387     0.689581     0.319104    Uiso  ? O
   O23        1.0     0.855387     0.689581     0.461962    Uiso  ? O
   O23        1.0     0.855387     0.689581     0.604819    Uiso  ? O
   O23        1.0     0.855387     0.689581     0.747676    Uiso  ? O
   O23        1.0     0.855387     0.689581     0.890533    Uiso  ? O
   O23        1.0     0.855387     0.939581     0.033390    Uiso  ? O
   O23        1.0     0.855387     0.939581     0.176247    Uiso  ? O
   O23        1.0     0.855387     0.939581     0.319104    Uiso  ? O
   O23        1.0     0.855387     0.939581     0.461962    Uiso  ? O
   O23        1.0     0.855387     0.939581     0.604819    Uiso  ? O
   O23        1.0     0.855387     0.939581     0.747676    Uiso  ? O
   O23        1.0     0.855387     0.939581     0.890533    Uiso  ? O
   O24        1.0     0.273871     0.214194     0.017815    Uiso  ? O
   O24        1.0     0.273871     0.214194     0.160672    Uiso  ? O
   O24        1.0     0.273871     0.214194     0.303529    Uiso  ? O
   O24        1.0     0.273871     0.214194     0.446386    Uiso  ? O
   O24        1.0     0.273871     0.214194     0.589243    Uiso  ? O
   O24        1.0     0.273871     0.214194     0.732101    Uiso  ? O
   O24        1.0     0.273871     0.214194     0.874958    Uiso  ? O
   O24        1.0     0.273871     0.464194     0.017815    Uiso  ? O
   O24        1.0     0.273871     0.464194     0.160672    Uiso  ? O
   O24        1.0     0.273871     0.464194     0.303529    Uiso  ? O
   O24        1.0     0.273871     0.464194     0.446386    Uiso  ? O
   O24        1.0     0.273871     0.464194     0.589243    Uiso  ? O
   O24        1.0     0.273871     0.464194     0.732101    Uiso  ? O
   O24        1.0     0.273871     0.464194     0.874958    Uiso  ? O
   O24        1.0     0.273871     0.714194     0.017815    Uiso  ? O
   O24        1.0     0.273871     0.714194     0.160672    Uiso  ? O
   O24        1.0     0.273871     0.714194     0.303529    Uiso  ? O
   O24        1.0     0.273871     0.714194     0.446386    Uiso  ? O
   O24        1.0     0.273871     0.714194     0.589243    Uiso  ? O
   O24        1.0     0.273871     0.714194     0.732101    Uiso  ? O
   O24        1.0     0.273871     0.714194     0.874958    Uiso  ? O
   O24        1.0     0.273871     0.964194     0.017815    Uiso  ? O
   O24        1.0     0.273871     0.964194     0.160672    Uiso  ? O
   O24        1.0     0.273871     0.964194     0.303529    Uiso  ? O
   O24        1.0     0.273871     0.964194     0.446386    Uiso  ? O
   O24        1.0     0.273871     0.964194     0.589243    Uiso  ? O
   O24        1.0     0.273871     0.964194     0.732101    Uiso  ? O
   O24        1.0     0.273871     0.964194     0.874958    Uiso  ? O
   O24        1.0     0.607204     0.214194     0.017815    Uiso  ? O
   O24        1.0     0.607204     0.214194     0.160672    Uiso  ? O
   O24        1.0     0.607204     0.214194     0.303529    Uiso  ? O
   O24        1.0     0.607204     0.214194     0.446386    Uiso  ? O
   O24        1.0     0.607204     0.214194     0.589243    Uiso  ? O
   O24        1.0     0.607204     0.214194     0.732101    Uiso  ? O
   O24        1.0     0.607204     0.214194     0.874958    Uiso  ? O
   O24        1.0     0.607204     0.464194     0.017815    Uiso  ? O
   O24        1.0     0.607204     0.464194     0.160672    Uiso  ? O
   O24        1.0     0.607204     0.464194     0.303529    Uiso  ? O
   O24        1.0     0.607204     0.464194     0.446386    Uiso  ? O
   O24        1.0     0.607204     0.464194     0.589243    Uiso  ? O
   O24        1.0     0.607204     0.464194     0.732101    Uiso  ? O
   O24        1.0     0.607204     0.464194     0.874958    Uiso  ? O
   O24        1.0     0.607204     0.714194     0.017815    Uiso  ? O
   O24        1.0     0.607204     0.714194     0.160672    Uiso  ? O
   O24        1.0     0.607204     0.714194     0.303529    Uiso  ? O
   O24        1.0     0.607204     0.714194     0.446386    Uiso  ? O
   O24        1.0     0.607204     0.714194     0.589243    Uiso  ? O
   O24        1.0     0.607204     0.714194     0.732101    Uiso  ? O
   O24        1.0     0.607204     0.714194     0.874958    Uiso  ? O
   O24        1.0     0.607204     0.964194     0.017815    Uiso  ? O
   O24        1.0     0.607204     0.964194     0.160672    Uiso  ? O
   O24        1.0     0.607204     0.964194     0.303529    Uiso  ? O
   O24        1.0     0.607204     0.964194     0.446386    Uiso  ? O
   O24        1.0     0.607204     0.964194     0.589243    Uiso  ? O
   O24        1.0     0.607204     0.964194     0.732101    Uiso  ? O
   O24        1.0     0.607204     0.964194     0.874958    Uiso  ? O
   O24        1.0     0.940537     0.214194     0.017815    Uiso  ? O
   O24        1.0     0.940537     0.214194     0.160672    Uiso  ? O
   O24        1.0     0.940537     0.214194     0.303529    Uiso  ? O
   O24        1.0     0.940537     0.214194     0.446386    Uiso  ? O
   O24        1.0     0.940537     0.214194     0.589243    Uiso  ? O
   O24        1.0     0.940537     0.214194     0.732101    Uiso  ? O
   O24        1.0     0.940537     0.214194     0.874958    Uiso  ? O
   O24        1.0     0.940537     0.464194     0.017815    Uiso  ? O
   O24        1.0     0.940537     0.464194     0.160672    Uiso  ? O
   O24        1.0     0.940537     0.464194     0.303529    Uiso  ? O
   O24        1.0     0.940537     0.464194     0.446386    Uiso  ? O
   O24        1.0     0.940537     0.464194     0.589243    Uiso  ? O
   O24        1.0     0.940537     0.464194     0.732101    Uiso  ? O
   O24        1.0     0.940537     0.464194     0.874958    Uiso  ? O
   O24        1.0     0.940537     0.714194     0.017815    Uiso  ? O
   O24        1.0     0.940537     0.714194     0.160672    Uiso  ? O
   O24        1.0     0.940537     0.714194     0.303529    Uiso  ? O
   O24        1.0     0.940537     0.714194     0.446386    Uiso  ? O
   O24        1.0     0.940537     0.714194     0.589243    Uiso  ? O
   O24        1.0     0.940537     0.714194     0.732101    Uiso  ? O
   O24        1.0     0.940537     0.714194     0.874958    Uiso  ? O
   O24        1.0     0.940537     0.964194     0.017815    Uiso  ? O
   O24        1.0     0.940537     0.964194     0.160672    Uiso  ? O
   O24        1.0     0.940537     0.964194     0.303529    Uiso  ? O
   O24        1.0     0.940537     0.964194     0.446386    Uiso  ? O
   O24        1.0     0.940537     0.964194     0.589243    Uiso  ? O
   O24        1.0     0.940537     0.964194     0.732101    Uiso  ? O
   O24        1.0     0.940537     0.964194     0.874958    Uiso  ? O
   O25        1.0     0.151004     0.061831     0.012299    Uiso  ? O
   O25        1.0     0.151004     0.061831     0.155156    Uiso  ? O
   O25        1.0     0.151004     0.061831     0.298013    Uiso  ? O
   O25        1.0     0.151004     0.061831     0.440870    Uiso  ? O
   O25        1.0     0.151004     0.061831     0.583727    Uiso  ? O
   O25        1.0     0.151004     0.061831     0.726584    Uiso  ? O
   O25        1.0     0.151004     0.061831     0.869441    Uiso  ? O
   O25        1.0     0.151004     0.311831     0.012299    Uiso  ? O
   O25        1.0     0.151004     0.311831     0.155156    Uiso  ? O
   O25        1.0     0.151004     0.311831     0.298013    Uiso  ? O
   O25        1.0     0.151004     0.311831     0.440870    Uiso  ? O
   O25        1.0     0.151004     0.311831     0.583727    Uiso  ? O
   O25        1.0     0.151004     0.311831     0.726584    Uiso  ? O
   O25        1.0     0.151004     0.311831     0.869441    Uiso  ? O
   O25        1.0     0.151004     0.561831     0.012299    Uiso  ? O
   O25        1.0     0.151004     0.561831     0.155156    Uiso  ? O
   O25        1.0     0.151004     0.561831     0.298013    Uiso  ? O
   O25        1.0     0.151004     0.561831     0.440870    Uiso  ? O
   O25        1.0     0.151004     0.561831     0.583727    Uiso  ? O
   O25        1.0     0.151004     0.561831     0.726584    Uiso  ? O
   O25        1.0     0.151004     0.561831     0.869441    Uiso  ? O
   O25        1.0     0.151004     0.811831     0.012299    Uiso  ? O
   O25        1.0     0.151004     0.811831     0.155156    Uiso  ? O
   O25        1.0     0.151004     0.811831     0.298013    Uiso  ? O
   O25        1.0     0.151004     0.811831     0.440870    Uiso  ? O
   O25        1.0     0.151004     0.811831     0.583727    Uiso  ? O
   O25        1.0     0.151004     0.811831     0.726584    Uiso  ? O
   O25        1.0     0.151004     0.811831     0.869441    Uiso  ? O
   O25        1.0     0.484338     0.061831     0.012299    Uiso  ? O
   O25        1.0     0.484338     0.061831     0.155156    Uiso  ? O
   O25        1.0     0.484338     0.061831     0.298013    Uiso  ? O
   O25        1.0     0.484338     0.061831     0.440870    Uiso  ? O
   O25        1.0     0.484338     0.061831     0.583727    Uiso  ? O
   O25        1.0     0.484338     0.061831     0.726584    Uiso  ? O
   O25        1.0     0.484338     0.061831     0.869441    Uiso  ? O
   O25        1.0     0.484338     0.311831     0.012299    Uiso  ? O
   O25        1.0     0.484338     0.311831     0.155156    Uiso  ? O
   O25        1.0     0.484338     0.311831     0.298013    Uiso  ? O
   O25        1.0     0.484338     0.311831     0.440870    Uiso  ? O
   O25        1.0     0.484338     0.311831     0.583727    Uiso  ? O
   O25        1.0     0.484338     0.311831     0.726584    Uiso  ? O
   O25        1.0     0.484338     0.311831     0.869441    Uiso  ? O
   O25        1.0     0.484338     0.561831     0.012299    Uiso  ? O
   O25        1.0     0.484338     0.561831     0.155156    Uiso  ? O
   O25        1.0     0.484338     0.561831     0.298013    Uiso  ? O
   O25        1.0     0.484338     0.561831     0.440870    Uiso  ? O
   O25        1.0     0.484338     0.561831     0.583727    Uiso  ? O
   O25        1.0     0.484338     0.561831     0.726584    Uiso  ? O
   O25        1.0     0.484338     0.561831     0.869441    Uiso  ? O
   O25        1.0     0.484338     0.811831     0.012299    Uiso  ? O
   O25        1.0     0.484338     0.811831     0.155156    Uiso  ? O
   O25        1.0     0.484338     0.811831     0.298013    Uiso  ? O
   O25        1.0     0.484338     0.811831     0.440870    Uiso  ? O
   O25        1.0     0.484338     0.811831     0.583727    Uiso  ? O
   O25        1.0     0.484338     0.811831     0.726584    Uiso  ? O
   O25        1.0     0.484338     0.811831     0.869441    Uiso  ? O
   O25        1.0     0.817671     0.061831     0.012299    Uiso  ? O
   O25        1.0     0.817671     0.061831     0.155156    Uiso  ? O
   O25        1.0     0.817671     0.061831     0.298013    Uiso  ? O
   O25        1.0     0.817671     0.061831     0.440870    Uiso  ? O
   O25        1.0     0.817671     0.061831     0.583727    Uiso  ? O
   O25        1.0     0.817671     0.061831     0.726584    Uiso  ? O
   O25        1.0     0.817671     0.061831     0.869441    Uiso  ? O
   O25        1.0     0.817671     0.311831     0.012299    Uiso  ? O
   O25        1.0     0.817671     0.311831     0.155156    Uiso  ? O
   O25        1.0     0.817671     0.311831     0.298013    Uiso  ? O
   O25        1.0     0.817671     0.311831     0.440870    Uiso  ? O
   O25        1.0     0.817671     0.311831     0.583727    Uiso  ? O
   O25        1.0     0.817671     0.311831     0.726584    Uiso  ? O
   O25        1.0     0.817671     0.311831     0.869441    Uiso  ? O
   O25        1.0     0.817671     0.561831     0.012299    Uiso  ? O
   O25        1.0     0.817671     0.561831     0.155156    Uiso  ? O
   O25        1.0     0.817671     0.561831     0.298013    Uiso  ? O
   O25        1.0     0.817671     0.561831     0.440870    Uiso  ? O
   O25        1.0     0.817671     0.561831     0.583727    Uiso  ? O
   O25        1.0     0.817671     0.561831     0.726584    Uiso  ? O
   O25        1.0     0.817671     0.561831     0.869441    Uiso  ? O
   O25        1.0     0.817671     0.811831     0.012299    Uiso  ? O
   O25        1.0     0.817671     0.811831     0.155156    Uiso  ? O
   O25        1.0     0.817671     0.811831     0.298013    Uiso  ? O
   O25        1.0     0.817671     0.811831     0.440870    Uiso  ? O
   O25        1.0     0.817671     0.811831     0.583727    Uiso  ? O
   O25        1.0     0.817671     0.811831     0.726584    Uiso  ? O
   O25        1.0     0.817671     0.811831     0.869441    Uiso  ? O
   O26        1.0     0.273172     0.157248     0.015745    Uiso  ? O
   O26        1.0     0.273172     0.157248     0.158602    Uiso  ? O
   O26        1.0     0.273172     0.157248     0.301459    Uiso  ? O
   O26        1.0     0.273172     0.157248     0.444316    Uiso  ? O
   O26        1.0     0.273172     0.157248     0.587173    Uiso  ? O
   O26        1.0     0.273172     0.157248     0.730030    Uiso  ? O
   O26        1.0     0.273172     0.157248     0.872887    Uiso  ? O
   O26        1.0     0.273172     0.407248     0.015745    Uiso  ? O
   O26        1.0     0.273172     0.407248     0.158602    Uiso  ? O
   O26        1.0     0.273172     0.407248     0.301459    Uiso  ? O
   O26        1.0     0.273172     0.407248     0.444316    Uiso  ? O
   O26        1.0     0.273172     0.407248     0.587173    Uiso  ? O
   O26        1.0     0.273172     0.407248     0.730030    Uiso  ? O
   O26        1.0     0.273172     0.407248     0.872887    Uiso  ? O
   O26        1.0     0.273172     0.657248     0.015745    Uiso  ? O
   O26        1.0     0.273172     0.657248     0.158602    Uiso  ? O
   O26        1.0     0.273172     0.657248     0.301459    Uiso  ? O
   O26        1.0     0.273172     0.657248     0.444316    Uiso  ? O
   O26        1.0     0.273172     0.657248     0.587173    Uiso  ? O
   O26        1.0     0.273172     0.657248     0.730030    Uiso  ? O
   O26        1.0     0.273172     0.657248     0.872887    Uiso  ? O
   O26        1.0     0.273172     0.907248     0.015745    Uiso  ? O
   O26        1.0     0.273172     0.907248     0.158602    Uiso  ? O
   O26        1.0     0.273172     0.907248     0.301459    Uiso  ? O
   O26        1.0     0.273172     0.907248     0.444316    Uiso  ? O
   O26        1.0     0.273172     0.907248     0.587173    Uiso  ? O
   O26        1.0     0.273172     0.907248     0.730030    Uiso  ? O
   O26        1.0     0.273172     0.907248     0.872887    Uiso  ? O
   O26        1.0     0.606506     0.157248     0.015745    Uiso  ? O
   O26        1.0     0.606506     0.157248     0.158602    Uiso  ? O
   O26        1.0     0.606506     0.157248     0.301459    Uiso  ? O
   O26        1.0     0.606506     0.157248     0.444316    Uiso  ? O
   O26        1.0     0.606506     0.157248     0.587173    Uiso  ? O
   O26        1.0     0.606506     0.157248     0.730030    Uiso  ? O
   O26        1.0     0.606506     0.157248     0.872887    Uiso  ? O
   O26        1.0     0.606506     0.407248     0.015745    Uiso  ? O
   O26        1.0     0.606506     0.407248     0.158602    Uiso  ? O
   O26        1.0     0.606506     0.407248     0.301459    Uiso  ? O
   O26        1.0     0.606506     0.407248     0.444316    Uiso  ? O
   O26        1.0     0.606506     0.407248     0.587173    Uiso  ? O
   O26        1.0     0.606506     0.407248     0.730030    Uiso  ? O
   O26        1.0     0.606506     0.407248     0.872887    Uiso  ? O
   O26        1.0     0.606506     0.657248     0.015745    Uiso  ? O
   O26        1.0     0.606506     0.657248     0.158602    Uiso  ? O
   O26        1.0     0.606506     0.657248     0.301459    Uiso  ? O
   O26        1.0     0.606506     0.657248     0.444316    Uiso  ? O
   O26        1.0     0.606506     0.657248     0.587173    Uiso  ? O
   O26        1.0     0.606506     0.657248     0.730030    Uiso  ? O
   O26        1.0     0.606506     0.657248     0.872887    Uiso  ? O
   O26        1.0     0.606506     0.907248     0.015745    Uiso  ? O
   O26        1.0     0.606506     0.907248     0.158602    Uiso  ? O
   O26        1.0     0.606506     0.907248     0.301459    Uiso  ? O
   O26        1.0     0.606506     0.907248     0.444316    Uiso  ? O
   O26        1.0     0.606506     0.907248     0.587173    Uiso  ? O
   O26        1.0     0.606506     0.907248     0.730030    Uiso  ? O
   O26        1.0     0.606506     0.907248     0.872887    Uiso  ? O
   O26        1.0     0.939839     0.157248     0.015745    Uiso  ? O
   O26        1.0     0.939839     0.157248     0.158602    Uiso  ? O
   O26        1.0     0.939839     0.157248     0.301459    Uiso  ? O
   O26        1.0     0.939839     0.157248     0.444316    Uiso  ? O
   O26        1.0     0.939839     0.157248     0.587173    Uiso  ? O
   O26        1.0     0.939839     0.157248     0.730030    Uiso  ? O
   O26        1.0     0.939839     0.157248     0.872887    Uiso  ? O
   O26        1.0     0.939839     0.407248     0.015745    Uiso  ? O
   O26        1.0     0.939839     0.407248     0.158602    Uiso  ? O
   O26        1.0     0.939839     0.407248     0.301459    Uiso  ? O
   O26        1.0     0.939839     0.407248     0.444316    Uiso  ? O
   O26        1.0     0.939839     0.407248     0.587173    Uiso  ? O
   O26        1.0     0.939839     0.407248     0.730030    Uiso  ? O
   O26        1.0     0.939839     0.407248     0.872887    Uiso  ? O
   O26        1.0     0.939839     0.657248     0.015745    Uiso  ? O
   O26        1.0     0.939839     0.657248     0.158602    Uiso  ? O
   O26        1.0     0.939839     0.657248     0.301459    Uiso  ? O
   O26        1.0     0.939839     0.657248     0.444316    Uiso  ? O
   O26        1.0     0.939839     0.657248     0.587173    Uiso  ? O
   O26        1.0     0.939839     0.657248     0.730030    Uiso  ? O
   O26        1.0     0.939839     0.657248     0.872887    Uiso  ? O
   O26        1.0     0.939839     0.907248     0.015745    Uiso  ? O
   O26        1.0     0.939839     0.907248     0.158602    Uiso  ? O
   O26        1.0     0.939839     0.907248     0.301459    Uiso  ? O
   O26        1.0     0.939839     0.907248     0.444316    Uiso  ? O
   O26        1.0     0.939839     0.907248     0.587173    Uiso  ? O
   O26        1.0     0.939839     0.907248     0.730030    Uiso  ? O
   O26        1.0     0.939839     0.907248     0.872887    Uiso  ? O
   O27        1.0     0.101155     0.035916     0.008805    Uiso  ? O
   O27        1.0     0.101155     0.035916     0.151663    Uiso  ? O
   O27        1.0     0.101155     0.035916     0.294520    Uiso  ? O
   O27        1.0     0.101155     0.035916     0.437377    Uiso  ? O
   O27        1.0     0.101155     0.035916     0.580234    Uiso  ? O
   O27        1.0     0.101155     0.035916     0.723091    Uiso  ? O
   O27        1.0     0.101155     0.035916     0.865948    Uiso  ? O
   O27        1.0     0.101155     0.285916     0.008805    Uiso  ? O
   O27        1.0     0.101155     0.285916     0.151663    Uiso  ? O
   O27        1.0     0.101155     0.285916     0.294520    Uiso  ? O
   O27        1.0     0.101155     0.285916     0.437377    Uiso  ? O
   O27        1.0     0.101155     0.285916     0.580234    Uiso  ? O
   O27        1.0     0.101155     0.285916     0.723091    Uiso  ? O
   O27        1.0     0.101155     0.285916     0.865948    Uiso  ? O
   O27        1.0     0.101155     0.535916     0.008805    Uiso  ? O
   O27        1.0     0.101155     0.535916     0.151663    Uiso  ? O
   O27        1.0     0.101155     0.535916     0.294520    Uiso  ? O
   O27        1.0     0.101155     0.535916     0.437377    Uiso  ? O
   O27        1.0     0.101155     0.535916     0.580234    Uiso  ? O
   O27        1.0     0.101155     0.535916     0.723091    Uiso  ? O
   O27        1.0     0.101155     0.535916     0.865948    Uiso  ? O
   O27        1.0     0.101155     0.785916     0.008805    Uiso  ? O
   O27        1.0     0.101155     0.785916     0.151663    Uiso  ? O
   O27        1.0     0.101155     0.785916     0.294520    Uiso  ? O
   O27        1.0     0.101155     0.785916     0.437377    Uiso  ? O
   O27        1.0     0.101155     0.785916     0.580234    Uiso  ? O
   O27        1.0     0.101155     0.785916     0.723091    Uiso  ? O
   O27        1.0     0.101155     0.785916     0.865948    Uiso  ? O
   O27        1.0     0.434488     0.035916     0.008805    Uiso  ? O
   O27        1.0     0.434488     0.035916     0.151663    Uiso  ? O
   O27        1.0     0.434488     0.035916     0.294520    Uiso  ? O
   O27        1.0     0.434488     0.035916     0.437377    Uiso  ? O
   O27        1.0     0.434488     0.035916     0.580234    Uiso  ? O
   O27        1.0     0.434488     0.035916     0.723091    Uiso  ? O
   O27        1.0     0.434488     0.035916     0.865948    Uiso  ? O
   O27        1.0     0.434488     0.285916     0.008805    Uiso  ? O
   O27        1.0     0.434488     0.285916     0.151663    Uiso  ? O
   O27        1.0     0.434488     0.285916     0.294520    Uiso  ? O
   O27        1.0     0.434488     0.285916     0.437377    Uiso  ? O
   O27        1.0     0.434488     0.285916     0.580234    Uiso  ? O
   O27        1.0     0.434488     0.285916     0.723091    Uiso  ? O
   O27        1.0     0.434488     0.285916     0.865948    Uiso  ? O
   O27        1.0     0.434488     0.535916     0.008805    Uiso  ? O
   O27        1.0     0.434488     0.535916     0.151663    Uiso  ? O
   O27        1.0     0.434488     0.535916     0.294520    Uiso  ? O
   O27        1.0     0.434488     0.535916     0.437377    Uiso  ? O
   O27        1.0     0.434488     0.535916     0.580234    Uiso  ? O
   O27        1.0     0.434488     0.535916     0.723091    Uiso  ? O
   O27        1.0     0.434488     0.535916     0.865948    Uiso  ? O
   O27        1.0     0.434488     0.785916     0.008805    Uiso  ? O
   O27        1.0     0.434488     0.785916     0.151663    Uiso  ? O
   O27        1.0     0.434488     0.785916     0.294520    Uiso  ? O
   O27        1.0     0.434488     0.785916     0.437377    Uiso  ? O
   O27        1.0     0.434488     0.785916     0.580234    Uiso  ? O
   O27        1.0     0.434488     0.785916     0.723091    Uiso  ? O
   O27        1.0     0.434488     0.785916     0.865948    Uiso  ? O
   O27        1.0     0.767821     0.035916     0.008805    Uiso  ? O
   O27        1.0     0.767821     0.035916     0.151663    Uiso  ? O
   O27        1.0     0.767821     0.035916     0.294520    Uiso  ? O
   O27        1.0     0.767821     0.035916     0.437377    Uiso  ? O
   O27        1.0     0.767821     0.035916     0.580234    Uiso  ? O
   O27        1.0     0.767821     0.035916     0.723091    Uiso  ? O
   O27        1.0     0.767821     0.035916     0.865948    Uiso  ? O
   O27        1.0     0.767821     0.285916     0.008805    Uiso  ? O
   O27        1.0     0.767821     0.285916     0.151663    Uiso  ? O
   O27        1.0     0.767821     0.285916     0.294520    Uiso  ? O
   O27        1.0     0.767821     0.285916     0.437377    Uiso  ? O
   O27        1.0     0.767821     0.285916     0.580234    Uiso  ? O
   O27        1.0     0.767821     0.285916     0.723091    Uiso  ? O
   O27        1.0     0.767821     0.285916     0.865948    Uiso  ? O
   O27        1.0     0.767821     0.535916     0.008805    Uiso  ? O
   O27        1.0     0.767821     0.535916     0.151663    Uiso  ? O
   O27        1.0     0.767821     0.535916     0.294520    Uiso  ? O
   O27        1.0     0.767821     0.535916     0.437377    Uiso  ? O
   O27        1.0     0.767821     0.535916     0.580234    Uiso  ? O
   O27        1.0     0.767821     0.535916     0.723091    Uiso  ? O
   O27        1.0     0.767821     0.535916     0.865948    Uiso  ? O
   O27        1.0     0.767821     0.785916     0.008805    Uiso  ? O
   O27        1.0     0.767821     0.785916     0.151663    Uiso  ? O
   O27        1.0     0.767821     0.785916     0.294520    Uiso  ? O
   O27        1.0     0.767821     0.785916     0.437377    Uiso  ? O
   O27        1.0     0.767821     0.785916     0.580234    Uiso  ? O
   O27        1.0     0.767821     0.785916     0.723091    Uiso  ? O
   O27        1.0     0.767821     0.785916     0.865948    Uiso  ? O
   O28        1.0     0.100940     0.093211     0.008491    Uiso  ? O
   O28        1.0     0.100940     0.093211     0.151348    Uiso  ? O
   O28        1.0     0.100940     0.093211     0.294205    Uiso  ? O
   O28        1.0     0.100940     0.093211     0.437063    Uiso  ? O
   O28        1.0     0.100940     0.093211     0.579920    Uiso  ? O
   O28        1.0     0.100940     0.093211     0.722777    Uiso  ? O
   O28        1.0     0.100940     0.093211     0.865634    Uiso  ? O
   O28        1.0     0.100940     0.343211     0.008491    Uiso  ? O
   O28        1.0     0.100940     0.343211     0.151348    Uiso  ? O
   O28        1.0     0.100940     0.343211     0.294205    Uiso  ? O
   O28        1.0     0.100940     0.343211     0.437063    Uiso  ? O
   O28        1.0     0.100940     0.343211     0.579920    Uiso  ? O
   O28        1.0     0.100940     0.343211     0.722777    Uiso  ? O
   O28        1.0     0.100940     0.343211     0.865634    Uiso  ? O
   O28        1.0     0.100940     0.593211     0.008491    Uiso  ? O
   O28        1.0     0.100940     0.593211     0.151348    Uiso  ? O
   O28        1.0     0.100940     0.593211     0.294205    Uiso  ? O
   O28        1.0     0.100940     0.593211     0.437063    Uiso  ? O
   O28        1.0     0.100940     0.593211     0.579920    Uiso  ? O
   O28        1.0     0.100940     0.593211     0.722777    Uiso  ? O
   O28        1.0     0.100940     0.593211     0.865634    Uiso  ? O
   O28        1.0     0.100940     0.843211     0.008491    Uiso  ? O
   O28        1.0     0.100940     0.843211     0.151348    Uiso  ? O
   O28        1.0     0.100940     0.843211     0.294205    Uiso  ? O
   O28        1.0     0.100940     0.843211     0.437063    Uiso  ? O
   O28        1.0     0.100940     0.843211     0.579920    Uiso  ? O
   O28        1.0     0.100940     0.843211     0.722777    Uiso  ? O
   O28        1.0     0.100940     0.843211     0.865634    Uiso  ? O
   O28        1.0     0.434274     0.093211     0.008491    Uiso  ? O
   O28        1.0     0.434274     0.093211     0.151348    Uiso  ? O
   O28        1.0     0.434274     0.093211     0.294205    Uiso  ? O
   O28        1.0     0.434274     0.093211     0.437063    Uiso  ? O
   O28        1.0     0.434274     0.093211     0.579920    Uiso  ? O
   O28        1.0     0.434274     0.093211     0.722777    Uiso  ? O
   O28        1.0     0.434274     0.093211     0.865634    Uiso  ? O
   O28        1.0     0.434274     0.343211     0.008491    Uiso  ? O
   O28        1.0     0.434274     0.343211     0.151348    Uiso  ? O
   O28        1.0     0.434274     0.343211     0.294205    Uiso  ? O
   O28        1.0     0.434274     0.343211     0.437063    Uiso  ? O
   O28        1.0     0.434274     0.343211     0.579920    Uiso  ? O
   O28        1.0     0.434274     0.343211     0.722777    Uiso  ? O
   O28        1.0     0.434274     0.343211     0.865634    Uiso  ? O
   O28        1.0     0.434274     0.593211     0.008491    Uiso  ? O
   O28        1.0     0.434274     0.593211     0.151348    Uiso  ? O
   O28        1.0     0.434274     0.593211     0.294205    Uiso  ? O
   O28        1.0     0.434274     0.593211     0.437063    Uiso  ? O
   O28        1.0     0.434274     0.593211     0.579920    Uiso  ? O
   O28        1.0     0.434274     0.593211     0.722777    Uiso  ? O
   O28        1.0     0.434274     0.593211     0.865634    Uiso  ? O
   O28        1.0     0.434274     0.843211     0.008491    Uiso  ? O
   O28        1.0     0.434274     0.843211     0.151348    Uiso  ? O
   O28        1.0     0.434274     0.843211     0.294205    Uiso  ? O
   O28        1.0     0.434274     0.843211     0.437063    Uiso  ? O
   O28        1.0     0.434274     0.843211     0.579920    Uiso  ? O
   O28        1.0     0.434274     0.843211     0.722777    Uiso  ? O
   O28        1.0     0.434274     0.843211     0.865634    Uiso  ? O
   O28        1.0     0.767607     0.093211     0.008491    Uiso  ? O
   O28        1.0     0.767607     0.093211     0.151348    Uiso  ? O
   O28        1.0     0.767607     0.093211     0.294205    Uiso  ? O
   O28        1.0     0.767607     0.093211     0.437063    Uiso  ? O
   O28        1.0     0.767607     0.093211     0.579920    Uiso  ? O
   O28        1.0     0.767607     0.093211     0.722777    Uiso  ? O
   O28        1.0     0.767607     0.093211     0.865634    Uiso  ? O
   O28        1.0     0.767607     0.343211     0.008491    Uiso  ? O
   O28        1.0     0.767607     0.343211     0.151348    Uiso  ? O
   O28        1.0     0.767607     0.343211     0.294205    Uiso  ? O
   O28        1.0     0.767607     0.343211     0.437063    Uiso  ? O
   O28        1.0     0.767607     0.343211     0.579920    Uiso  ? O
   O28        1.0     0.767607     0.343211     0.722777    Uiso  ? O
   O28        1.0     0.767607     0.343211     0.865634    Uiso  ? O
   O28        1.0     0.767607     0.593211     0.008491    Uiso  ? O
   O28        1.0     0.767607     0.593211     0.151348    Uiso  ? O
   O28        1.0     0.767607     0.593211     0.294205    Uiso  ? O
   O28        1.0     0.767607     0.593211     0.437063    Uiso  ? O
   O28        1.0     0.767607     0.593211     0.579920    Uiso  ? O
   O28        1.0     0.767607     0.593211     0.722777    Uiso  ? O
   O28        1.0     0.767607     0.593211     0.865634    Uiso  ? O
   O28        1.0     0.767607     0.843211     0.008491    Uiso  ? O
   O28        1.0     0.767607     0.843211     0.151348    Uiso  ? O
   O28        1.0     0.767607     0.843211     0.294205    Uiso  ? O
   O28        1.0     0.767607     0.843211     0.437063    Uiso  ? O
   O28        1.0     0.767607     0.843211     0.579920    Uiso  ? O
   O28        1.0     0.767607     0.843211     0.722777    Uiso  ? O
   O28        1.0     0.767607     0.843211     0.865634    Uiso  ? O
   S1         1.0     0.157974     0.061594     0.127798    Uiso  ? S
   S1         1.0     0.157974     0.061594     0.270655    Uiso  ? S
   S1         1.0     0.157974     0.061594     0.413512    Uiso  ? S
   S1         1.0     0.157974     0.061594     0.556369    Uiso  ? S
   S1         1.0     0.157974     0.061594     0.699226    Uiso  ? S
   S1         1.0     0.157974     0.061594     0.842083    Uiso  ? S
   S1         1.0     0.157974     0.061594     0.984940    Uiso  ? S
   S1         1.0     0.157974     0.311594     0.127798    Uiso  ? S
   S1         1.0     0.157974     0.311594     0.270655    Uiso  ? S
   S1         1.0     0.157974     0.311594     0.413512    Uiso  ? S
   S1         1.0     0.157974     0.311594     0.556369    Uiso  ? S
   S1         1.0     0.157974     0.311594     0.699226    Uiso  ? S
   S1         1.0     0.157974     0.311594     0.842083    Uiso  ? S
   S1         1.0     0.157974     0.311594     0.984940    Uiso  ? S
   S1         1.0     0.157974     0.561594     0.127798    Uiso  ? S
   S1         1.0     0.157974     0.561594     0.270655    Uiso  ? S
   S1         1.0     0.157974     0.561594     0.413512    Uiso  ? S
   S1         1.0     0.157974     0.561594     0.556369    Uiso  ? S
   S1         1.0     0.157974     0.561594     0.699226    Uiso  ? S
   S1         1.0     0.157974     0.561594     0.842083    Uiso  ? S
   S1         1.0     0.157974     0.561594     0.984940    Uiso  ? S
   S1         1.0     0.157974     0.811594     0.127798    Uiso  ? S
   S1         1.0     0.157974     0.811594     0.270655    Uiso  ? S
   S1         1.0     0.157974     0.811594     0.413512    Uiso  ? S
   S1         1.0     0.157974     0.811594     0.556369    Uiso  ? S
   S1         1.0     0.157974     0.811594     0.699226    Uiso  ? S
   S1         1.0     0.157974     0.811594     0.842083    Uiso  ? S
   S1         1.0     0.157974     0.811594     0.984940    Uiso  ? S
   S1         1.0     0.491307     0.061594     0.127798    Uiso  ? S
   S1         1.0     0.491307     0.061594     0.270655    Uiso  ? S
   S1         1.0     0.491307     0.061594     0.413512    Uiso  ? S
   S1         1.0     0.491307     0.061594     0.556369    Uiso  ? S
   S1         1.0     0.491307     0.061594     0.699226    Uiso  ? S
   S1         1.0     0.491307     0.061594     0.842083    Uiso  ? S
   S1         1.0     0.491307     0.061594     0.984940    Uiso  ? S
   S1         1.0     0.491307     0.311594     0.127798    Uiso  ? S
   S1         1.0     0.491307     0.311594     0.270655    Uiso  ? S
   S1         1.0     0.491307     0.311594     0.413512    Uiso  ? S
   S1         1.0     0.491307     0.311594     0.556369    Uiso  ? S
   S1         1.0     0.491307     0.311594     0.699226    Uiso  ? S
   S1         1.0     0.491307     0.311594     0.842083    Uiso  ? S
   S1         1.0     0.491307     0.311594     0.984940    Uiso  ? S
   S1         1.0     0.491307     0.561594     0.127798    Uiso  ? S
   S1         1.0     0.491307     0.561594     0.270655    Uiso  ? S
   S1         1.0     0.491307     0.561594     0.413512    Uiso  ? S
   S1         1.0     0.491307     0.561594     0.556369    Uiso  ? S
   S1         1.0     0.491307     0.561594     0.699226    Uiso  ? S
   S1         1.0     0.491307     0.561594     0.842083    Uiso  ? S
   S1         1.0     0.491307     0.561594     0.984940    Uiso  ? S
   S1         1.0     0.491307     0.811594     0.127798    Uiso  ? S
   S1         1.0     0.491307     0.811594     0.270655    Uiso  ? S
   S1         1.0     0.491307     0.811594     0.413512    Uiso  ? S
   S1         1.0     0.491307     0.811594     0.556369    Uiso  ? S
   S1         1.0     0.491307     0.811594     0.699226    Uiso  ? S
   S1         1.0     0.491307     0.811594     0.842083    Uiso  ? S
   S1         1.0     0.491307     0.811594     0.984940    Uiso  ? S
   S1         1.0     0.824640     0.061594     0.127798    Uiso  ? S
   S1         1.0     0.824640     0.061594     0.270655    Uiso  ? S
   S1         1.0     0.824640     0.061594     0.413512    Uiso  ? S
   S1         1.0     0.824640     0.061594     0.556369    Uiso  ? S
   S1         1.0     0.824640     0.061594     0.699226    Uiso  ? S
   S1         1.0     0.824640     0.061594     0.842083    Uiso  ? S
   S1         1.0     0.824640     0.061594     0.984940    Uiso  ? S
   S1         1.0     0.824640     0.311594     0.127798    Uiso  ? S
   S1         1.0     0.824640     0.311594     0.270655    Uiso  ? S
   S1         1.0     0.824640     0.311594     0.413512    Uiso  ? S
   S1         1.0     0.824640     0.311594     0.556369    Uiso  ? S
   S1         1.0     0.824640     0.311594     0.699226    Uiso  ? S
   S1         1.0     0.824640     0.311594     0.842083    Uiso  ? S
   S1         1.0     0.824640     0.311594     0.984940    Uiso  ? S
   S1         1.0     0.824640     0.561594     0.127798    Uiso  ? S
   S1         1.0     0.824640     0.561594     0.270655    Uiso  ? S
   S1         1.0     0.824640     0.561594     0.413512    Uiso  ? S
   S1         1.0     0.824640     0.561594     0.556369    Uiso  ? S
   S1         1.0     0.824640     0.561594     0.699226    Uiso  ? S
   S1         1.0     0.824640     0.561594     0.842083    Uiso  ? S
   S1         1.0     0.824640     0.561594     0.984940    Uiso  ? S
   S1         1.0     0.824640     0.811594     0.127798    Uiso  ? S
   S1         1.0     0.824640     0.811594     0.270655    Uiso  ? S
   S1         1.0     0.824640     0.811594     0.413512    Uiso  ? S
   S1         1.0     0.824640     0.811594     0.556369    Uiso  ? S
   S1         1.0     0.824640     0.811594     0.699226    Uiso  ? S
   S1         1.0     0.824640     0.811594     0.842083    Uiso  ? S
   S1         1.0     0.824640     0.811594     0.984940    Uiso  ? S
   S2         1.0     0.324758     0.189361     0.084156    Uiso  ? S
   S2         1.0     0.324758     0.189361     0.227014    Uiso  ? S
   S2         1.0     0.324758     0.189361     0.369871    Uiso  ? S
   S2         1.0     0.324758     0.189361     0.512728    Uiso  ? S
   S2         1.0     0.324758     0.189361     0.655585    Uiso  ? S
   S2         1.0     0.324758     0.189361     0.798442    Uiso  ? S
   S2         1.0     0.324758     0.189361     0.941299    Uiso  ? S
   S2         1.0     0.324758     0.439360     0.084156    Uiso  ? S
   S2         1.0     0.324758     0.439360     0.227014    Uiso  ? S
   S2         1.0     0.324758     0.439360     0.369871    Uiso  ? S
   S2         1.0     0.324758     0.439360     0.512728    Uiso  ? S
   S2         1.0     0.324758     0.439360     0.655585    Uiso  ? S
   S2         1.0     0.324758     0.439360     0.798442    Uiso  ? S
   S2         1.0     0.324758     0.439360     0.941299    Uiso  ? S
   S2         1.0     0.324758     0.689360     0.084156    Uiso  ? S
   S2         1.0     0.324758     0.689360     0.227014    Uiso  ? S
   S2         1.0     0.324758     0.689360     0.369871    Uiso  ? S
   S2         1.0     0.324758     0.689360     0.512728    Uiso  ? S
   S2         1.0     0.324758     0.689360     0.655585    Uiso  ? S
   S2         1.0     0.324758     0.689360     0.798442    Uiso  ? S
   S2         1.0     0.324758     0.689360     0.941299    Uiso  ? S
   S2         1.0     0.324758     0.939360     0.084156    Uiso  ? S
   S2         1.0     0.324758     0.939360     0.227014    Uiso  ? S
   S2         1.0     0.324758     0.939360     0.369871    Uiso  ? S
   S2         1.0     0.324758     0.939360     0.512728    Uiso  ? S
   S2         1.0     0.324758     0.939360     0.655585    Uiso  ? S
   S2         1.0     0.324758     0.939360     0.798442    Uiso  ? S
   S2         1.0     0.324758     0.939360     0.941299    Uiso  ? S
   S2         1.0     0.658092     0.189361     0.084156    Uiso  ? S
   S2         1.0     0.658092     0.189361     0.227014    Uiso  ? S
   S2         1.0     0.658092     0.189361     0.369871    Uiso  ? S
   S2         1.0     0.658092     0.189361     0.512728    Uiso  ? S
   S2         1.0     0.658092     0.189361     0.655585    Uiso  ? S
   S2         1.0     0.658092     0.189361     0.798442    Uiso  ? S
   S2         1.0     0.658092     0.189361     0.941299    Uiso  ? S
   S2         1.0     0.658092     0.439360     0.084156    Uiso  ? S
   S2         1.0     0.658092     0.439360     0.227014    Uiso  ? S
   S2         1.0     0.658092     0.439360     0.369871    Uiso  ? S
   S2         1.0     0.658092     0.439360     0.512728    Uiso  ? S
   S2         1.0     0.658092     0.439360     0.655585    Uiso  ? S
   S2         1.0     0.658092     0.439360     0.798442    Uiso  ? S
   S2         1.0     0.658092     0.439360     0.941299    Uiso  ? S
   S2         1.0     0.658092     0.689360     0.084156    Uiso  ? S
   S2         1.0     0.658092     0.689360     0.227014    Uiso  ? S
   S2         1.0     0.658092     0.689360     0.369871    Uiso  ? S
   S2         1.0     0.658092     0.689360     0.512728    Uiso  ? S
   S2         1.0     0.658092     0.689360     0.655585    Uiso  ? S
   S2         1.0     0.658092     0.689360     0.798442    Uiso  ? S
   S2         1.0     0.658092     0.689360     0.941299    Uiso  ? S
   S2         1.0     0.658092     0.939360     0.084156    Uiso  ? S
   S2         1.0     0.658092     0.939360     0.227014    Uiso  ? S
   S2         1.0     0.658092     0.939360     0.369871    Uiso  ? S
   S2         1.0     0.658092     0.939360     0.512728    Uiso  ? S
   S2         1.0     0.658092     0.939360     0.655585    Uiso  ? S
   S2         1.0     0.658092     0.939360     0.798442    Uiso  ? S
   S2         1.0     0.658092     0.939360     0.941299    Uiso  ? S
   S2         1.0     0.991425     0.189361     0.084156    Uiso  ? S
   S2         1.0     0.991425     0.189361     0.227014    Uiso  ? S
   S2         1.0     0.991425     0.189361     0.369871    Uiso  ? S
   S2         1.0     0.991425     0.189361     0.512728    Uiso  ? S
   S2         1.0     0.991425     0.189361     0.655585    Uiso  ? S
   S2         1.0     0.991425     0.189361     0.798442    Uiso  ? S
   S2         1.0     0.991425     0.189361     0.941299    Uiso  ? S
   S2         1.0     0.991425     0.439360     0.084156    Uiso  ? S
   S2         1.0     0.991425     0.439360     0.227014    Uiso  ? S
   S2         1.0     0.991425     0.439360     0.369871    Uiso  ? S
   S2         1.0     0.991425     0.439360     0.512728    Uiso  ? S
   S2         1.0     0.991425     0.439360     0.655585    Uiso  ? S
   S2         1.0     0.991425     0.439360     0.798442    Uiso  ? S
   S2         1.0     0.991425     0.439360     0.941299    Uiso  ? S
   S2         1.0     0.991425     0.689360     0.084156    Uiso  ? S
   S2         1.0     0.991425     0.689360     0.227014    Uiso  ? S
   S2         1.0     0.991425     0.689360     0.369871    Uiso  ? S
   S2         1.0     0.991425     0.689360     0.512728    Uiso  ? S
   S2         1.0     0.991425     0.689360     0.655585    Uiso  ? S
   S2         1.0     0.991425     0.689360     0.798442    Uiso  ? S
   S2         1.0     0.991425     0.689360     0.941299    Uiso  ? S
   S2         1.0     0.991425     0.939360     0.084156    Uiso  ? S
   S2         1.0     0.991425     0.939360     0.227014    Uiso  ? S
   S2         1.0     0.991425     0.939360     0.369871    Uiso  ? S
   S2         1.0     0.991425     0.939360     0.512728    Uiso  ? S
   S2         1.0     0.991425     0.939360     0.655585    Uiso  ? S
   S2         1.0     0.991425     0.939360     0.798442    Uiso  ? S
   S2         1.0     0.991425     0.939360     0.941299    Uiso  ? S
   S3         1.0     0.006201     0.061592     0.055959    Uiso  ? S
   S3         1.0     0.006201     0.061592     0.198816    Uiso  ? S
   S3         1.0     0.006201     0.061592     0.341674    Uiso  ? S
   S3         1.0     0.006201     0.061592     0.484531    Uiso  ? S
   S3         1.0     0.006201     0.061592     0.627388    Uiso  ? S
   S3         1.0     0.006201     0.061592     0.770245    Uiso  ? S
   S3         1.0     0.006201     0.061592     0.913102    Uiso  ? S
   S3         1.0     0.006201     0.311592     0.055959    Uiso  ? S
   S3         1.0     0.006201     0.311592     0.198816    Uiso  ? S
   S3         1.0     0.006201     0.311592     0.341674    Uiso  ? S
   S3         1.0     0.006201     0.311592     0.484531    Uiso  ? S
   S3         1.0     0.006201     0.311592     0.627388    Uiso  ? S
   S3         1.0     0.006201     0.311592     0.770245    Uiso  ? S
   S3         1.0     0.006201     0.311592     0.913102    Uiso  ? S
   S3         1.0     0.006201     0.561592     0.055959    Uiso  ? S
   S3         1.0     0.006201     0.561592     0.198816    Uiso  ? S
   S3         1.0     0.006201     0.561592     0.341674    Uiso  ? S
   S3         1.0     0.006201     0.561592     0.484531    Uiso  ? S
   S3         1.0     0.006201     0.561592     0.627388    Uiso  ? S
   S3         1.0     0.006201     0.561592     0.770245    Uiso  ? S
   S3         1.0     0.006201     0.561592     0.913102    Uiso  ? S
   S3         1.0     0.006201     0.811592     0.055959    Uiso  ? S
   S3         1.0     0.006201     0.811592     0.198816    Uiso  ? S
   S3         1.0     0.006201     0.811592     0.341674    Uiso  ? S
   S3         1.0     0.006201     0.811592     0.484531    Uiso  ? S
   S3         1.0     0.006201     0.811592     0.627388    Uiso  ? S
   S3         1.0     0.006201     0.811592     0.770245    Uiso  ? S
   S3         1.0     0.006201     0.811592     0.913102    Uiso  ? S
   S3         1.0     0.339534     0.061592     0.055959    Uiso  ? S
   S3         1.0     0.339534     0.061592     0.198816    Uiso  ? S
   S3         1.0     0.339534     0.061592     0.341674    Uiso  ? S
   S3         1.0     0.339534     0.061592     0.484531    Uiso  ? S
   S3         1.0     0.339534     0.061592     0.627388    Uiso  ? S
   S3         1.0     0.339534     0.061592     0.770245    Uiso  ? S
   S3         1.0     0.339534     0.061592     0.913102    Uiso  ? S
   S3         1.0     0.339534     0.311592     0.055959    Uiso  ? S
   S3         1.0     0.339534     0.311592     0.198816    Uiso  ? S
   S3         1.0     0.339534     0.311592     0.341674    Uiso  ? S
   S3         1.0     0.339534     0.311592     0.484531    Uiso  ? S
   S3         1.0     0.339534     0.311592     0.627388    Uiso  ? S
   S3         1.0     0.339534     0.311592     0.770245    Uiso  ? S
   S3         1.0     0.339534     0.311592     0.913102    Uiso  ? S
   S3         1.0     0.339534     0.561592     0.055959    Uiso  ? S
   S3         1.0     0.339534     0.561592     0.198816    Uiso  ? S
   S3         1.0     0.339534     0.561592     0.341674    Uiso  ? S
   S3         1.0     0.339534     0.561592     0.484531    Uiso  ? S
   S3         1.0     0.339534     0.561592     0.627388    Uiso  ? S
   S3         1.0     0.339534     0.561592     0.770245    Uiso  ? S
   S3         1.0     0.339534     0.561592     0.913102    Uiso  ? S
   S3         1.0     0.339534     0.811592     0.055959    Uiso  ? S
   S3         1.0     0.339534     0.811592     0.198816    Uiso  ? S
   S3         1.0     0.339534     0.811592     0.341674    Uiso  ? S
   S3         1.0     0.339534     0.811592     0.484531    Uiso  ? S
   S3         1.0     0.339534     0.811592     0.627388    Uiso  ? S
   S3         1.0     0.339534     0.811592     0.770245    Uiso  ? S
   S3         1.0     0.339534     0.811592     0.913102    Uiso  ? S
   S3         1.0     0.672868     0.061592     0.055959    Uiso  ? S
   S3         1.0     0.672868     0.061592     0.198816    Uiso  ? S
   S3         1.0     0.672868     0.061592     0.341674    Uiso  ? S
   S3         1.0     0.672868     0.061592     0.484531    Uiso  ? S
   S3         1.0     0.672868     0.061592     0.627388    Uiso  ? S
   S3         1.0     0.672868     0.061592     0.770245    Uiso  ? S
   S3         1.0     0.672868     0.061592     0.913102    Uiso  ? S
   S3         1.0     0.672868     0.311592     0.055959    Uiso  ? S
   S3         1.0     0.672868     0.311592     0.198816    Uiso  ? S
   S3         1.0     0.672868     0.311592     0.341674    Uiso  ? S
   S3         1.0     0.672868     0.311592     0.484531    Uiso  ? S
   S3         1.0     0.672868     0.311592     0.627388    Uiso  ? S
   S3         1.0     0.672868     0.311592     0.770245    Uiso  ? S
   S3         1.0     0.672868     0.311592     0.913102    Uiso  ? S
   S3         1.0     0.672868     0.561592     0.055959    Uiso  ? S
   S3         1.0     0.672868     0.561592     0.198816    Uiso  ? S
   S3         1.0     0.672868     0.561592     0.341674    Uiso  ? S
   S3         1.0     0.672868     0.561592     0.484531    Uiso  ? S
   S3         1.0     0.672868     0.561592     0.627388    Uiso  ? S
   S3         1.0     0.672868     0.561592     0.770245    Uiso  ? S
   S3         1.0     0.672868     0.561592     0.913102    Uiso  ? S
   S3         1.0     0.672868     0.811592     0.055959    Uiso  ? S
   S3         1.0     0.672868     0.811592     0.198816    Uiso  ? S
   S3         1.0     0.672868     0.811592     0.341674    Uiso  ? S
   S3         1.0     0.672868     0.811592     0.484531    Uiso  ? S
   S3         1.0     0.672868     0.811592     0.627388    Uiso  ? S
   S3         1.0     0.672868     0.811592     0.770245    Uiso  ? S
   S3         1.0     0.672868     0.811592     0.913102    Uiso  ? S
   S4         1.0     0.172776     0.189462     0.012087    Uiso  ? S
   S4         1.0     0.172776     0.189462     0.154944    Uiso  ? S
   S4         1.0     0.172776     0.189462     0.297801    Uiso  ? S
   S4         1.0     0.172776     0.189462     0.440658    Uiso  ? S
   S4         1.0     0.172776     0.189462     0.583515    Uiso  ? S
   S4         1.0     0.172776     0.189462     0.726373    Uiso  ? S
   S4         1.0     0.172776     0.189462     0.869230    Uiso  ? S
   S4         1.0     0.172776     0.439462     0.012087    Uiso  ? S
   S4         1.0     0.172776     0.439462     0.154944    Uiso  ? S
   S4         1.0     0.172776     0.439462     0.297801    Uiso  ? S
   S4         1.0     0.172776     0.439462     0.440658    Uiso  ? S
   S4         1.0     0.172776     0.439462     0.583515    Uiso  ? S
   S4         1.0     0.172776     0.439462     0.726373    Uiso  ? S
   S4         1.0     0.172776     0.439462     0.869230    Uiso  ? S
   S4         1.0     0.172776     0.689462     0.012087    Uiso  ? S
   S4         1.0     0.172776     0.689462     0.154944    Uiso  ? S
   S4         1.0     0.172776     0.689462     0.297801    Uiso  ? S
   S4         1.0     0.172776     0.689462     0.440658    Uiso  ? S
   S4         1.0     0.172776     0.689462     0.583515    Uiso  ? S
   S4         1.0     0.172776     0.689462     0.726373    Uiso  ? S
   S4         1.0     0.172776     0.689462     0.869230    Uiso  ? S
   S4         1.0     0.172776     0.939462     0.012087    Uiso  ? S
   S4         1.0     0.172776     0.939462     0.154944    Uiso  ? S
   S4         1.0     0.172776     0.939462     0.297801    Uiso  ? S
   S4         1.0     0.172776     0.939462     0.440658    Uiso  ? S
   S4         1.0     0.172776     0.939462     0.583515    Uiso  ? S
   S4         1.0     0.172776     0.939462     0.726373    Uiso  ? S
   S4         1.0     0.172776     0.939462     0.869230    Uiso  ? S
   S4         1.0     0.506110     0.189462     0.012087    Uiso  ? S
   S4         1.0     0.506110     0.189462     0.154944    Uiso  ? S
   S4         1.0     0.506110     0.189462     0.297801    Uiso  ? S
   S4         1.0     0.506110     0.189462     0.440658    Uiso  ? S
   S4         1.0     0.506110     0.189462     0.583515    Uiso  ? S
   S4         1.0     0.506110     0.189462     0.726373    Uiso  ? S
   S4         1.0     0.506110     0.189462     0.869230    Uiso  ? S
   S4         1.0     0.506110     0.439462     0.012087    Uiso  ? S
   S4         1.0     0.506110     0.439462     0.154944    Uiso  ? S
   S4         1.0     0.506110     0.439462     0.297801    Uiso  ? S
   S4         1.0     0.506110     0.439462     0.440658    Uiso  ? S
   S4         1.0     0.506110     0.439462     0.583515    Uiso  ? S
   S4         1.0     0.506110     0.439462     0.726373    Uiso  ? S
   S4         1.0     0.506110     0.439462     0.869230    Uiso  ? S
   S4         1.0     0.506110     0.689462     0.012087    Uiso  ? S
   S4         1.0     0.506110     0.689462     0.154944    Uiso  ? S
   S4         1.0     0.506110     0.689462     0.297801    Uiso  ? S
   S4         1.0     0.506110     0.689462     0.440658    Uiso  ? S
   S4         1.0     0.506110     0.689462     0.583515    Uiso  ? S
   S4         1.0     0.506110     0.689462     0.726373    Uiso  ? S
   S4         1.0     0.506110     0.689462     0.869230    Uiso  ? S
   S4         1.0     0.506110     0.939462     0.012087    Uiso  ? S
   S4         1.0     0.506110     0.939462     0.154944    Uiso  ? S
   S4         1.0     0.506110     0.939462     0.297801    Uiso  ? S
   S4         1.0     0.506110     0.939462     0.440658    Uiso  ? S
   S4         1.0     0.506110     0.939462     0.583515    Uiso  ? S
   S4         1.0     0.506110     0.939462     0.726373    Uiso  ? S
   S4         1.0     0.506110     0.939462     0.869230    Uiso  ? S
   S4         1.0     0.839443     0.189462     0.012087    Uiso  ? S
   S4         1.0     0.839443     0.189462     0.154944    Uiso  ? S
   S4         1.0     0.839443     0.189462     0.297801    Uiso  ? S
   S4         1.0     0.839443     0.189462     0.440658    Uiso  ? S
   S4         1.0     0.839443     0.189462     0.583515    Uiso  ? S
   S4         1.0     0.839443     0.189462     0.726373    Uiso  ? S
   S4         1.0     0.839443     0.189462     0.869230    Uiso  ? S
   S4         1.0     0.839443     0.439462     0.012087    Uiso  ? S
   S4         1.0     0.839443     0.439462     0.154944    Uiso  ? S
   S4         1.0     0.839443     0.439462     0.297801    Uiso  ? S
   S4         1.0     0.839443     0.439462     0.440658    Uiso  ? S
   S4         1.0     0.839443     0.439462     0.583515    Uiso  ? S
   S4         1.0     0.839443     0.439462     0.726373    Uiso  ? S
   S4         1.0     0.839443     0.439462     0.869230    Uiso  ? S
   S4         1.0     0.839443     0.689462     0.012087    Uiso  ? S
   S4         1.0     0.839443     0.689462     0.154944    Uiso  ? S
   S4         1.0     0.839443     0.689462     0.297801    Uiso  ? S
   S4         1.0     0.839443     0.689462     0.440658    Uiso  ? S
   S4         1.0     0.839443     0.689462     0.583515    Uiso  ? S
   S4         1.0     0.839443     0.689462     0.726373    Uiso  ? S
   S4         1.0     0.839443     0.689462     0.869230    Uiso  ? S
   S4         1.0     0.839443     0.939462     0.012087    Uiso  ? S
   S4         1.0     0.839443     0.939462     0.154944    Uiso  ? S
   S4         1.0     0.839443     0.939462     0.297801    Uiso  ? S
   S4         1.0     0.839443     0.939462     0.440658    Uiso  ? S
   S4         1.0     0.839443     0.939462     0.583515    Uiso  ? S
   S4         1.0     0.839443     0.939462     0.726373    Uiso  ? S
   S4         1.0     0.839443     0.939462     0.869230    Uiso  ? S
